  106
  -170.654839289000       0.315093786339744      !
 C         -8.2089953594       -1.3493482413       -1.3140166634
 C         -8.2773745951       -0.1796083072       -0.5729459910
 C         -7.1295111827        0.5421780453       -0.3089109236
 C         -5.9011888770        0.0885425503       -0.7810560569
 C         -4.6749029783        0.8140084883       -0.4571432460
 N         -4.7533892205        2.0934259065       -0.1080630229
 C         -3.5863450466        2.7035196619        0.1583007664
 C         -3.6045566401        4.1353229346        0.4340583930
 C         -2.4227778083        4.8035606815        0.7567531299
 C         -2.4426517562        6.1606304469        1.0086022336
 C         -3.6363371220        6.8639598993        0.9430017796
 C         -4.8135178485        6.2046859110        0.6230606805
 C         -4.8021887280        4.8474971041        0.3686386523
 N         -2.4246247062        2.0777869527        0.2013608637
 C         -2.4312261630        0.7744307060       -0.0953931349
 C         -1.2036205136        0.0325519253        0.0306770641
 C          0.0037235870        0.7106886348        0.0297066839
 C          1.2258886544        0.0527023968        0.0448911864
 C          2.4369593250        0.8198740861        0.1173600796
 N          2.3832334354        2.1284791620       -0.1625106499
 C          3.5255285340        2.7853963795       -0.1787501265
 C          3.4854840952        4.2238659271       -0.4157291238
 C          2.2644692017        4.8660082279       -0.6265096395
 C          2.2271977712        6.2300633995       -0.8337096583
 C          3.4025744191        6.9666324284       -0.8346982354
 C          4.6185485840        6.3332270914       -0.6279315510
 C          4.6645274234        4.9689382943       -0.4185439163
 N          4.7247251430        2.2012918224       -0.0048264295
 C          4.6996109737        0.9159463908        0.3319364404
 C          5.9627056948        0.2135109802        0.5497006185
 C          5.9943466349       -0.9349144572        1.3358812094
 C          7.1767912424       -1.6307534903        1.4928420424
 C          8.3301059509       -1.1911750492        0.8624951280
 C          8.3035412376       -0.0434703699        0.0854790909
 C          7.1261605945        0.6627004069       -0.0679696925
 N          3.5893306941        0.2138943010        0.4532276777
 C          1.2299849853       -1.3755747151        0.0098202425
 N          2.4350499145       -2.0809264857       -0.1047279927
 C          3.3734838513       -1.9016667190       -1.1029309774
 C          3.3230550639       -1.0815112382       -2.2212096410
 C          4.4253579785       -1.0649794003       -3.0550374523
 C          5.5421837625       -1.8562083930       -2.7985799985
 C          5.5793930399       -2.7058126930       -1.7083165269
 C          4.4861846987       -2.7374440834       -0.8561131598
 C          4.1846302187       -3.4691151013        0.3444482900
 C          4.8684217802       -4.4233483803        1.0813553564
 C          4.2847496800       -4.9107082941        2.2371162682
 C          3.0403661728       -4.4504554377        2.6648205000
 C          2.3373999756       -3.5028031118        1.9463853530
 C          2.9104583433       -3.0225155376        0.7752489146
 C          0.0271041593       -2.0609227123        0.0795669470
 C         -1.1878823510       -1.3927777587        0.1180838587
 N         -2.3848209341       -2.1078136797        0.2462681147
 C         -2.8363683867       -3.0948016345       -0.5972494663
 C         -2.2283492538       -3.6411866704       -1.7207213580
 C         -2.9139268790       -4.6223977852       -2.4104846715
 C         -4.1754385675       -5.0516632373       -2.0014781212
 C         -4.7947473392       -4.4973130639       -0.8956792535
 C         -4.1287820758       -3.5082469697       -0.1889562835
 C         -4.4697078004       -2.7053463115        0.9540924684
 C         -5.5976908937       -2.6100169136        1.7543561228
 C         -5.5969835000       -1.6937793389        2.7902940040
 C         -4.4819674715       -0.9000881760        3.0466972462
 C         -3.3452454173       -0.9794609658        2.2641907643
 C         -3.3591578807       -1.8649747913        1.1953979393
 N         -3.5414073680        0.1382806400       -0.5028705877
 C         -5.8371570852       -1.0827054519       -1.5312195636
 C         -6.9891736413       -1.7960676623       -1.7969951755
 H         -9.1089250590       -1.9113166417       -1.5181387792
 H         -9.2303717343        0.1678334174       -0.2013641061
 H         -7.1614444429        1.4525426393        0.2698505368
 H         -1.5032092428        4.2413286922        0.8077330536
 H         -1.5260585780        6.6752098579        1.2584291419
 H         -3.6491844508        7.9260082133        1.1406823407
 H         -5.7420369387        6.7546268847        0.5714790928
 H         -5.7079016837        4.3189184145        0.1141276102
 H         -0.0041965078        1.7899359871        0.0087628894
 H          1.3592871828        4.2787034676       -0.6256241962
 H          1.2801493726        6.7240085461       -0.9963143191
 H          3.3706976354        8.0342679914       -0.9966635616
 H          5.5327884198        6.9088954183       -0.6290594168
 H          5.6013566148        4.4603123565       -0.2508542291
 H          5.0890531914       -1.2631223221        1.8238977997
 H          7.1974584786       -2.5203170320        2.1052994320
 H          9.2526115338       -1.7413722283        0.9796415932
 H          9.2049289406        0.2989359413       -0.4015712508
 H          7.0843413036        1.5562914526       -0.6717536306
 H          2.4593319110       -0.4654959450       -2.4244689014
 H          4.4201211048       -0.4231355501       -3.9235251513
 H          6.3880311126       -1.8072632989       -3.4677872524
 H          6.4418166619       -3.3262090403       -1.5172980366
 H          5.8376747783       -4.7724247650        0.7589181074
 H          4.8014229377       -5.6546774122        2.8251945594
 H          2.6190616726       -4.8411700459        3.5791824106
 H          1.3807957076       -3.1381075933        2.2885267726
 H          0.0362775086       -3.1420631010        0.1023369954
 H         -1.2588411795       -3.3006474893       -2.0511089035
 H         -2.4649209818       -5.0643560850       -3.2875735236
 H         -4.6773016638       -5.8236789557       -2.5657494899
 H         -5.7781152073       -4.8202895350       -0.5892393104
 H         -6.4592430784       -3.2319255827        1.5641935286
 H         -6.4708502142       -1.5935513027        3.4164281028
 H         -4.5056181005       -0.2052540803        3.8730987605
 H         -2.4832633852       -0.3611759134        2.4681006793
 H         -4.8810115886       -1.4134432968       -1.9076601415
 H         -6.9345433014       -2.7034429139       -2.3806237268
  106
  -170.654349137600       0.187577978804571      !
 C         -8.1960774075       -1.3974509032       -1.3189418139
 C         -8.2768562380       -0.2755113560       -0.5086247557
 C         -7.1423711057        0.4620018442       -0.2304356773
 C         -5.9150722431        0.0722707853       -0.7586619270
 C         -4.7006793972        0.8092629343       -0.4164259793
 N         -4.8020146006        2.0635600925        0.0088343236
 C         -3.6444167318        2.6854963289        0.2929114022
 C         -3.6980266903        4.0933770058        0.6681214142
 C         -2.5289491415        4.7775776551        1.0033038740
 C         -2.5860734270        6.1100018497        1.3594555231
 C         -3.8043048803        6.7726595981        1.3867770120
 C         -4.9688719746        6.0976221408        1.0539824052
 C         -4.9203955195        4.7651969936        0.6949848575
 N         -2.4672950809        2.0885807410        0.2775365920
 C         -2.4498952369        0.8021517116       -0.0875096499
 C         -1.2143279632        0.0701686865        0.0029407548
 C         -0.0065569947        0.7513508806        0.0034696901
 C          1.2133941677        0.0920970928        0.0120258253
 C          2.4358173314        0.8471343707        0.0877692303
 N          2.4286763054        2.1284016918       -0.2956890930
 C          3.5953170591        2.7447110441       -0.3292886154
 C          3.6220834340        4.1467465584       -0.7285289079
 C          4.8353477169        4.8313931146       -0.8024516486
 C          4.8581432656        6.1577564294       -1.1856580739
 C          3.6767465067        6.8141543319       -1.4956583055
 C          2.4674246600        6.1389785105       -1.4205633949
 C          2.4359884662        4.8122793248       -1.0406866358
 N          4.7653250982        2.1467993158       -0.0442077632
 C          4.6881783818        0.8981887721        0.4026491080
 C          5.9170117715        0.1882812900        0.7504428651
 C          5.8640112034       -0.9251442215        1.5848649361
 C          7.0168963513       -1.6298137813        1.8693493582
 C          8.2262630715       -1.2326683644        1.3210952503
 C          8.2838458700       -0.1200782161        0.4960183123
 C          7.1352804331        0.5933299229        0.2128894071
 N          3.5526701926        0.2360296772        0.5186804536
 C          1.2203434867       -1.3356353464       -0.0329508103
 N          2.4284621843       -2.0358925817       -0.1444615256
 C          3.3878114664       -1.8193670954       -1.1148095794
 C          3.3494104286       -0.9764258379       -2.2169598801
 C          4.4753734919       -0.9140671229       -3.0163301622
 C          5.6032345441       -1.6837251024       -2.7432982493
 C          5.6285641126       -2.5581471074       -1.6720878008
 C          4.5120007456       -2.6353997697       -0.8540945718
 C          4.1949635658       -3.3965452072        0.3239329434
 C          4.8815349299       -4.3489141197        1.0605523097
 C          4.2812923510       -4.8682387659        2.1936039444
 C          3.0182793813       -4.4405257295        2.5993950997
 C          2.3124747374       -3.4952869517        1.8802945856
 C          2.9019157940       -2.9840457136        0.7308185421
 C          0.0184228341       -2.0240212371        0.0218757886
 C         -1.1958260038       -1.3567263495        0.0669511160
 N         -2.3913829670       -2.0771320690        0.1844997573
 C         -2.8447385710       -3.0448634187       -0.6800437000
 C         -2.2419875952       -3.5607511061       -1.8205095137
 C         -2.9285266053       -4.5272619035       -2.5299533073
 C         -4.1856724985       -4.9713700248       -2.1235423847
 C         -4.7994083492       -4.4476388633       -0.9997810144
 C         -4.1322698366       -3.4740980230       -0.2730266705
 C         -4.4677590810       -2.7023963721        0.8929466271
 C         -5.5896562370       -2.6326322665        1.7042725145
 C         -5.5844862007       -1.7431505919        2.7633071341
 C         -4.4712546145       -0.9506128353        3.0308036531
 C         -3.3404158518       -1.0048876077        2.2377416233
 C         -3.3588533311       -1.8638235787        1.1475133629
 N         -3.5532927611        0.1650504322       -0.5152176261
 C         -5.8388176513       -1.0505455681       -1.5785495760
 C         -6.9777030164       -1.7796964657       -1.8577584019
 H         -9.0852991682       -1.9724937757       -1.5335020375
 H         -9.2284618671        0.0211934318       -0.0922347972
 H         -7.1836623546        1.3347922189        0.4030047703
 H         -1.5897644294        4.2467889464        0.9806843213
 H         -1.6795274405        6.6374316942        1.6185612948
 H         -3.8460313674        7.8149051797        1.6680265767
 H         -5.9168864126        6.6153784293        1.0757215325
 H         -5.8161170494        4.2249975147        0.4298714080
 H         -0.0163462757        1.8308351526       -0.0048413980
 H          5.7446883775        4.3055280174       -0.5556324619
 H          5.7991883695        6.6851399539       -1.2451738326
 H          3.6982917818        7.8519412934       -1.7950364066
 H          1.5476736509        6.6519319719       -1.6615456117
 H          1.5040996249        4.2713658432       -0.9830475805
 H          4.9155208110       -1.2195559939        2.0081075518
 H          6.9712772302       -2.4922448062        2.5182408731
 H          9.1265326835       -1.7885839744        1.5399352677
 H          9.2287185274        0.1892378630        0.0735368737
 H          7.1585229316        1.4582809280       -0.4320956996
 H          2.4774171852       -0.3765393778       -2.4329159230
 H          4.4803670261       -0.2516429077       -3.8692037151
 H          6.4677071281       -1.5980504606       -3.3844076527
 H          6.5001963612       -3.1614958429       -1.4685966933
 H          5.8655788990       -4.6710692138        0.7554814508
 H          4.7992558700       -5.6116945320        2.7812178100
 H          2.5843358015       -4.8546428346        3.4974125977
 H          1.3415039427       -3.1554279126        2.2071198065
 H          0.0282459000       -3.1053516808        0.0293099372
 H         -1.2756262238       -3.2086509048       -2.1480702768
 H         -2.4838779577       -4.9453368414       -3.4208807671
 H         -4.6886465785       -5.7307895316       -2.7037278179
 H         -5.7791966320       -4.7823801901       -0.6945405596
 H         -6.4493491531       -3.2545301385        1.5059300039
 H         -6.4532661839       -1.6637050704        3.3993605484
 H         -4.4915921098       -0.2768255155        3.8745000328
 H         -2.4797219883       -0.3874967524        2.4496442330
 H         -4.8833151158       -1.3339866030       -1.9934141729
 H         -6.9140388642       -2.6496530390       -2.4949718996
  106
  -170.654340001000       0.185773156913026      !
 C         -8.2941178269       -1.3208396145       -0.9904290645
 C         -8.3094481321       -0.1412422529       -0.2622491846
 C         -7.1436809600        0.5777967260       -0.0824390246
 C         -5.9502783293        0.1113733147       -0.6262196644
 C         -4.7019889921        0.8312314182       -0.3839771234
 N         -4.7514509909        2.1204747586       -0.0646245097
 C         -3.5661776758        2.7226753590        0.1344280236
 C         -3.5531234077        4.1623820966        0.3673607799
 C         -2.3483570458        4.8224628969        0.6130093152
 C         -2.3373067190        6.1870899303        0.8202357727
 C         -3.5228812441        6.9063463213        0.7863569008
 C         -4.7228023425        6.2551819206        0.5438986805
 C         -4.7424594687        4.8903056618        0.3344118558
 N         -2.4132896196        2.0828896919        0.1466738231
 C         -2.4437342062        0.7718130341       -0.1214152371
 C         -1.2197538688        0.0247919638       -0.0260050545
 C         -0.0101319079        0.7031291381       -0.0208154482
 C          1.2105105026        0.0466274286       -0.0071907424
 C          2.4214017897        0.8159896771        0.0917988295
 N          2.3749696910        2.1194412849       -0.2058761084
 C          3.5177183612        2.7779146773       -0.1853339711
 C          3.4875630438        4.2114848895       -0.4509902243
 C          4.6592799074        4.9644493731       -0.3751785940
 C          4.6233344325        6.3237361131       -0.6161507638
 C          3.4247083205        6.9440301201       -0.9341403333
 C          2.2567082857        6.1996835964       -1.0110547781
 C          2.2838660469        4.8406233922       -0.7715006132
 N          4.7078872449        2.1994593519        0.0503743331
 C          4.6722003117        0.9168647199        0.3954781425
 C          5.9271048490        0.2223411905        0.6759403948
 C          5.9254045288       -0.9301945418        1.4568263230
 C          7.1037396297       -1.6156055842        1.6772026094
 C          8.2867935565       -1.1608551175        1.1164747464
 C          8.2929928793       -0.0095249882        0.3443767252
 C          7.1191812783        0.6856455431        0.1269904715
 N          3.5592033415        0.2115961932        0.4730806785
 C          1.2181431049       -1.3805483810       -0.0594381280
 N          2.4263278672       -2.0813718710       -0.1640727503
 C          3.3901620343       -1.8702459284       -1.1311478385
 C          3.3584392685       -1.0309121425       -2.2359820363
 C          4.4850718637       -0.9794378730       -3.0351059486
 C          5.6077436865       -1.7554270757       -2.7583662572
 C          5.6271050077       -2.6247308750       -1.6831108100
 C          4.5093421299       -2.6915693990       -0.8656169618
 C          4.1857586395       -3.4476243389        0.3138880541
 C          4.8657299159       -4.4003807965        1.0563516577
 C          4.2593909816       -4.9136790706        2.1888664566
 C          2.9961109303       -4.4803698887        2.5883575304
 C          2.2967345874       -3.5347989523        1.8636898521
 C          2.8929105745       -3.0285993617        0.7152859971
 C          0.0147234055       -2.0677629349       -0.0097246187
 C         -1.2006703664       -1.4018986581        0.0375059984
 N         -2.3941219374       -2.1251811587        0.1580509670
 C         -2.8456557354       -3.0954914592       -0.7032600783
 C         -2.2551300876       -3.5924582690       -1.8587194241
 C         -2.9368447774       -4.5668872019       -2.5616301593
 C         -4.1771738335       -5.0378778560       -2.1337070129
 C         -4.7783366588       -4.5344233398       -0.9939466452
 C         -4.1163377314       -3.5527495439       -0.2732543184
 C         -4.4417997683       -2.7965219860        0.9056969658
 C         -5.5442297464       -2.7603192914        1.7456710309
 C         -5.5322558956       -1.8816112485        2.8132549112
 C         -4.4311624895       -1.0656309451        3.0602440887
 C         -3.3198337777       -1.0864951236        2.2387370065
 C         -3.3453957638       -1.9364936549        1.1420258872
 N         -3.5793871103        0.1425838121       -0.4680789666
 C         -5.9403555130       -1.0684402529       -1.3654633483
 C         -7.1103235979       -1.7789514442       -1.5469248878
 H         -9.2075965140       -1.8813013461       -1.1276260605
 H         -9.2346458810        0.2157315275        0.1663166391
 H         -7.1343988111        1.4954503623        0.4856615619
 H         -1.4350365474        4.2485743572        0.6399566688
 H         -1.4028376893        6.6948724212        1.0104867457
 H         -3.5116096562        7.9743661324        0.9488015533
 H         -5.6449923509        6.8174255701        0.5173652666
 H         -5.6664228067        4.3679306247        0.1397508862
 H         -0.0199151204        1.7825604246       -0.0243289595
 H          5.5822000308        4.4657250920       -0.1222215964
 H          5.5317264301        6.9056549340       -0.5554274448
 H          3.4007398869        8.0075340143       -1.1223315391
 H          1.3235520169        6.6835560990       -1.2608349178
 H          1.3847985885        4.2468663472       -0.8316241058
 H          4.9971675738       -1.2692147722        1.8913274974
 H          7.0985195323       -2.5079887294        2.2859082611
 H          9.2067878556       -1.7019677935        1.2844101800
 H          9.2172149075        0.3442398611       -0.0888064897
 H          7.1026648450        1.5811821110       -0.4751521117
 H          2.4902153109       -0.4264987255       -2.4543860804
 H          4.4948633144       -0.3213640585       -3.8913275557
 H          6.4728938432       -1.6785395637       -3.3996755663
 H          6.4947603121       -3.2328397513       -1.4768478298
 H          5.8496054954       -4.7276152344        0.7561139330
 H          4.7726291269       -5.6565899895        2.7812591265
 H          2.5569089688       -4.8906723380        3.4855651942
 H          1.3253410484       -3.1908980216        2.1850710030
 H          0.0241918383       -3.1491824602       -0.0062269619
 H         -1.3017401266       -3.2198534957       -2.2013517667
 H         -2.5020072907       -4.9705403967       -3.4639589744
 H         -4.6769745569       -5.8026490503       -2.7095602378
 H         -5.7445335860       -4.8918737942       -0.6714559535
 H         -6.3944750256       -3.3997532432        1.5629102189
 H         -6.3860686536       -1.8285344043        3.4719639961
 H         -4.4457665516       -0.4007302013        3.9110607126
 H         -2.4681326145       -0.4515324495        2.4343197681
 H         -5.0120546434       -1.4087559308       -1.7988080009
 H         -7.0977101135       -2.6935418576       -2.1217235037
  106
  -170.654268368900       0.172211887758960      !
 C         -8.2458900058       -1.4033599943        0.9932849797
 C         -8.2818614199       -0.2532203622        0.2200794998
 C         -7.1339717219        0.4914648084        0.0317334613
 C         -5.9372381807        0.0797480573        0.6111989982
 C         -4.7056102186        0.8207151874        0.3500594114
 N         -4.7821186561        2.0903338204       -0.0320441757
 C         -3.6133222727        2.7080291822       -0.2737373290
 C         -3.6431589772        4.1272331221       -0.6070575049
 C         -4.8485374349        4.8287228205       -0.5784200791
 C         -4.8726676399        6.1736515724       -0.8904612506
 C         -3.7008797866        6.8306750337       -1.2337825422
 C         -2.4998499776        6.1374696107       -1.2634532288
 C         -2.4665071449        4.7932078619       -0.9521470539
 N         -2.4420473293        2.0994153883       -0.2491187064
 C         -2.4462554887        0.8074295492        0.0957674694
 C         -1.2096674535        0.0733435337        0.0224013661
 C         -0.0032138164        0.7563014707        0.0474136876
 C          1.2181574658        0.0988875154        0.0911732229
 C          2.4319916339        0.8600850385        0.2219186562
 N          2.4089559609        2.1557145420       -0.1110324933
 C          3.5622185257        2.7959867648       -0.0823103282
 C          3.5655326447        4.2190083286       -0.4002263953
 C          4.7530400910        4.9484773639       -0.3429675234
 C          4.7498839319        6.2972014769       -0.6394555991
 C          3.5685535355        6.9304355625       -0.9942559117
 C          2.3851916592        6.2093509887       -1.0521786089
 C          2.3792171052        4.8609991708       -0.7577420519
 N          4.7366447084        2.2069331605        0.2030463020
 C          4.6782960628        0.9317508905        0.5700572426
 C          5.9172399457        0.2232958697        0.8823268279
 C          5.8832444144       -0.9295515642        1.6620943043
 C          7.0462745786       -1.6332048576        1.9047312784
 C          8.2471507322       -1.1953007484        1.3689313928
 C          8.2864147724       -0.0421263896        0.6006467937
 C          7.1275687671        0.6701237121        0.3599204127
 N          3.5524011547        0.2458555323        0.6379879268
 C          1.2280893344       -1.3279149782        0.0447636388
 N          2.4352947571       -2.0379062705        0.0058997642
 C          3.4359353112       -1.8755019268       -0.9323652748
 C          3.4704508844       -1.0507936968       -2.0477730858
 C          4.6245166273       -1.0484105636       -2.8082851621
 C          5.7095261650       -1.8587993555       -2.4838669145
 C          5.6630705197       -2.7127688328       -1.3973575919
 C          4.5171633089       -2.7296927518       -0.6170799193
 C          4.1287323334       -3.4574264584        0.5609680453
 C          4.7482688561       -4.4215043713        1.3409739028
 C          4.0850315638       -4.8962322892        2.4583651072
 C          2.8247255932       -4.4137123509        2.8078687556
 C          2.1855025801       -3.4565391134        2.0445708710
 C          2.8381974994       -2.9889907898        0.9110435865
 C          0.0269690714       -2.0177634490       -0.0108218053
 C         -1.1896717958       -1.3534371929       -0.0332371136
 N         -2.3788557053       -2.0813791698       -0.1637991031
 C         -3.3283791888       -1.8938116349       -1.1500965373
 C         -3.3057746543       -1.0385417980       -2.2428372942
 C         -4.4188187485       -1.0142849404       -3.0619511770
 C         -5.5185933949       -1.8327035464       -2.8173431779
 C         -5.5266516642       -2.7185683778       -1.7557056929
 C         -4.4222936010       -2.7583346916       -0.9184848786
 C         -4.0937090180       -3.5223411981        0.2544895450
 C         -4.7513085664       -4.5133045224        0.9664278010
 C         -4.1459654487       -5.0273647802        2.0991127691
 C         -2.9067680181       -4.5562519601        2.5296996567
 C         -2.2316276853       -3.5707266937        1.8362776055
 C         -2.8249756631       -3.0633689009        0.6873921439
 N         -3.5652907019        0.1668788488        0.4727233425
 C         -5.9066736808       -1.0703575962        1.3950185511
 C         -7.0597646046       -1.8058066160        1.5859599880
 H         -9.1451911417       -1.9844317968        1.1370187967
 H         -9.2088025443        0.0600878838       -0.2373245910
 H         -7.1394669317        1.3863556376       -0.5715885307
 H         -5.7501580189        4.3024257545       -0.3054537803
 H         -5.8070827873        6.7154703680       -0.8664298032
 H         -3.7234314481        7.8829101197       -1.4774157166
 H         -1.5887496754        6.6513242202       -1.5332564172
 H         -1.5417345428        4.2378488028       -0.9731350436
 H         -0.0161311625        1.8342102647        0.0947449038
 H          5.6625134743        4.4406751131       -0.0605561656
 H          5.6704868724        6.8609267985       -0.5935841531
 H          3.5699036676        7.9858176882       -1.2249620794
 H          1.4659189386        6.7052000214       -1.3276236538
 H          1.4682521101        4.2844573012       -0.7990224966
 H          4.9414450913       -1.2550313029        2.0774688312
 H          7.0152040330       -2.5274536810        2.5099600224
 H          9.1551495850       -1.7512159596        1.5530653654
 H          9.2247042854        0.2992407790        0.1882608818
 H          7.1367748187        1.5670276518       -0.2403798096
 H          2.6305976880       -0.4214738068       -2.3032543525
 H          4.6858022225       -0.4032118505       -3.6720073179
 H          6.5974132310       -1.8213771110       -3.0969597641
 H          6.5020015546       -3.3469676764       -1.1542089231
 H          5.7296730314       -4.7880206425        1.0806409673
 H          4.5510845260       -5.6470869031        3.0790406995
 H          2.3407723980       -4.7947931906        3.6947541549
 H          1.2166827295       -3.0722766649        2.3245122425
 H          0.0416283756       -3.0965082416       -0.0877111816
 H         -2.4548205990       -0.4023743397       -2.4376708261
 H         -4.4357118536       -0.3444294773       -3.9087572188
 H         -6.3738768636       -1.7764735683       -3.4738718675
 H         -6.3755811097       -3.3601613388       -1.5744532302
 H         -5.7165929113       -4.8705005279        0.6411720733
 H         -4.6413141209       -5.8009908495        2.6668762294
 H         -2.4675863903       -4.9694039523        3.4255797602
 H         -1.2792633332       -3.1983152731        2.1809507137
 H         -4.9762978184       -1.3684597032        1.8547001253
 H         -7.0322973281       -2.6962552495        2.1973469815
  106
  -170.654068230200       0.139343190183699      !
 C         -8.2380015951       -1.2346776337       -1.4196934814
 C         -7.0355446673       -1.6350735893       -1.9805334220
 C         -5.8761999718       -0.9385885072       -1.7018354532
 C         -5.9163934873        0.1706324314       -0.8612579906
 C         -4.6821297117        0.8706298865       -0.5144177583
 N         -4.7515631557        2.1206467593       -0.0704195851
 C         -3.5829772986        2.7039910512        0.2413561226
 C         -3.5942958494        4.1037302263        0.6503082351
 C         -2.4125574135        4.7219919469        1.0612315157
 C         -2.4234792005        6.0475884015        1.4453179141
 C         -3.6077031715        6.7694196177        1.4236941530
 C         -4.7846444150        6.1596521244        1.0166948386
 C         -4.7827800398        4.8334429886        0.6314794461
 N         -2.4220249431        2.0749004809        0.2228138275
 C         -2.4368096538        0.8016832251       -0.1829408032
 C         -1.2094409131        0.0513477109       -0.0886891491
 C         -0.0024707045        0.7302170667       -0.0483025204
 C          1.2196564272        0.0714322098       -0.0183777153
 C          2.4346446175        0.8299794695       -0.1215672813
 N          2.3838441591        2.1516292242        0.0869142000
 C          3.5290981573        2.8040216872        0.0607870651
 C          3.4957987819        4.2542888513        0.2085853188
 C          2.2768140589        4.9159041376        0.3637941371
 C          2.2463423440        6.2906576300        0.4812266388
 C          3.4261750731        7.0192649588        0.4472504095
 C          4.6401120834        6.3667729944        0.2952487132
 C          4.6794483056        4.9915965387        0.1754764803
 N          4.7254391898        2.2069476445       -0.0871306973
 C          4.7002718104        0.9005855098       -0.3291829194
 C          5.9625812805        0.1827500681       -0.4919167039
 C          5.9914102548       -1.0290013407       -1.1767601349
 C          7.1731151976       -1.7360132218       -1.2790725621
 C          8.3298496193       -1.2428130456       -0.6964598894
 C          8.3069296753       -0.0315910284       -0.0224948885
 C          7.1296072738        0.6841609446        0.0771701714
 N          3.5871797967        0.1974548395       -0.4076638125
 C          1.2226577566       -1.3550740139        0.0648191082
 N          2.4206055653       -2.0561551288        0.2471656724
 C          2.9061349691       -3.0624805068       -0.5515282916
 C          2.3595506481       -3.6170110227       -1.7022015246
 C          3.0689705485       -4.6184728883       -2.3356262302
 C          4.2965227909       -5.0604546997       -1.8443317255
 C          4.8550906328       -4.5007481005       -0.7092880393
 C          4.1631111093       -3.4921901672       -0.0571292498
 C          4.4413275350       -2.6846460078        1.0995972357
 C          5.5120661094       -2.6066541865        1.9771002665
 C          5.4542760540       -1.6883547257        3.0091552900
 C          4.3381411633       -0.8744092906        3.1848608117
 C          3.2584513033       -0.9357267183        2.3240501508
 C          3.3317695496       -1.8244892259        1.2608970901
 C          0.0194820202       -2.0413639706        0.0192796716
 C         -1.1942312630       -1.3745743106       -0.0615696423
 N         -2.3880335417       -2.1090656689       -0.0724593914
 C         -2.7568557096       -3.0204523109       -1.0316195808
 C         -2.0653865956       -3.4344484588       -2.1628857408
 C         -2.6746379253       -4.3594690448       -2.9878858983
 C         -3.9431532344       -4.8616540326       -2.7014232124
 C         -4.6434283911       -4.4414079798       -1.5847333287
 C         -4.0537315248       -3.5117572195       -0.7422008126
 C         -4.4817804354       -2.8414314525        0.4560505741
 C         -5.6498056948       -2.8672449025        1.2026277297
 C         -5.7344495342       -2.0628817333        2.3240729583
 C         -4.6660193801       -1.2599822033        2.7157098022
 C         -3.4904765925       -1.2205209219        1.9900557466
 C         -3.4169474781       -1.9949595364        0.8409092314
 N         -3.5497616575        0.1989006925       -0.6278307468
 C         -7.1282820432        0.5801019159       -0.3122982543
 C         -8.2829298274       -0.1258013838       -0.5888542798
 H         -9.1429971524       -1.7851779051       -1.6327246323
 H         -7.0004238226       -2.4942193326       -2.6343850545
 H         -4.9328595742       -1.2353464896       -2.1347325481
 H         -1.5015161799        4.1440488492        1.0758124869
 H         -1.5081391109        6.5230614322        1.7670781919
 H         -3.6135624049        7.8067904365        1.7253250549
 H         -5.7060119946        6.7235807404        1.0014499464
 H         -5.6890535396        4.3436833965        0.3098691205
 H         -0.0087467269        1.8079923937       -0.0977338667
 H          1.3682507660        4.3344853412        0.3859010209
 H          1.3008431040        6.8007633857        0.5952875607
 H          3.3993036651        8.0955117671        0.5371662015
 H          5.5578536099        6.9361651721        0.2668130373
 H          5.6146652023        4.4683683201        0.0484928213
 H          5.0842439143       -1.3969528900       -1.6316624076
 H          7.1907419842       -2.6752861304       -1.8123466365
 H          9.2521473625       -1.8006561272       -0.7708955874
 H          9.2110661266        0.3524560387        0.4269074552
 H          7.0905562610        1.6260969972        0.6026703002
 H          1.4164116564       -3.2680486722       -2.0935273193
 H          2.6667018611       -5.0675073568       -3.2315462734
 H          4.8195392505       -5.8479882323       -2.3662658227
 H          5.8113455909       -4.8362803105       -0.3374722220
 H          6.3733363460       -3.2447223701        1.8497659453
 H          6.2825731601       -1.6030390672        3.6964182356
 H          4.3152481378       -0.1792417373        4.0109485162
 H          2.3944106923       -0.3033511368        2.4658599495
 H          0.0221707407       -3.1200944497        0.0978976159
 H         -1.0901665304       -3.0337546116       -2.3940059873
 H         -2.1608161502       -4.6986372113       -3.8751779897
 H         -4.3856450924       -5.5851411888       -3.3700140216
 H         -5.6306349743       -4.8231724930       -1.3726703173
 H         -6.4763493942       -3.4953327260        0.9068214657
 H         -6.6402401432       -2.0584271232        2.9116186204
 H         -4.7581315759       -0.6538738479        3.6047362756
 H         -2.6634339505       -0.5968158100        2.2965500158
 H         -7.1415960777        1.4425709418        0.3364477264
 H         -9.2222963779        0.1860216955       -0.1560916048
