  106
       -171.29270586
 C         -8.2269690325       -1.5349255382        0.9548405325
 C         -8.2744577131       -0.2618009713        0.4081591878
 C         -7.1258675593        0.5010077715        0.3272612705
 C         -5.9171249459       -0.0145110926        0.7862206974
 C         -4.6868800895        0.7577888808        0.6307087904
 N         -4.7630283167        2.0763474666        0.4914505094
 C         -3.5961094543        2.7241143751        0.3341402206
 C         -3.6229686076        4.1805385119        0.2690271549
 C         -4.8210174893        4.8687355421        0.4611439170
 C         -4.8422215059        6.2482155215        0.4030863309
 C         -3.6747895061        6.9533687613        0.1530912403
 C         -2.4810448623        6.2735189388       -0.0383889273
 C         -2.4506467200        4.8947992990        0.0188040440
 N         -2.4298762879        2.1174915331        0.2124408009
 C         -2.4356338683        0.7840830993        0.3133387207
 C         -1.2079076842        0.0719940710        0.0703727468
 C          0.0046012514        0.7345899143        0.1860289956
 C          1.2210204514        0.0763068520        0.0726995896
 C          2.4445080810        0.7962749113        0.3064375606
 N          2.4233952066        2.1311543315        0.2187215376
 C          3.5824713275        2.7512904024        0.3316897844
 C          3.5892085577        4.2085149737        0.2814589308
 C          4.7840722607        4.9109399159        0.4379118594
 C          4.7842969080        6.2912116445        0.3952295669
 C          3.5990781055        6.9829606591        0.1973663171
 C          2.4084119046        6.2888848849        0.0416866804
 C          2.3990067581        4.9093879189        0.0826850992
 N          4.7592449609        2.1157941723        0.4696672138
 C          4.7001269503        0.7950013765        0.5969577001
 C          5.9411103845        0.0369736116        0.7375165103
 C          5.9188200463       -1.2397888050        1.2921615244
 C          7.0820341457       -1.9800014640        1.3673812010
 C          8.2713272426       -1.4548062690        0.8870719264
 C          8.2992047586       -0.1798579001        0.3436167833
 C          7.1402998703        0.5684377060        0.2717376651
 N          3.5706921266        0.1121081365        0.5697517039
 C          1.2173993304       -1.3174861397       -0.2360816128
 N          2.4169180656       -2.0121589376       -0.4398645276
 C          3.3925436223       -1.6828413305       -1.3605722225
 C          3.4032362232       -0.6666876007       -2.3054462035
 C          4.5357708080       -0.5279403995       -3.0854248345
 C          5.6223450564       -1.3878791697       -2.9472777946
 C          5.5986654207       -2.4274224593       -2.0358429220
 C          4.4747084653       -2.5841335131       -1.2393597713
 C          4.1128179629       -3.5153472243       -0.2048800636
 C          4.7454138220       -4.6088062310        0.3659533119
 C          4.1093269820       -5.2792509309        1.3953758889
 C          2.8633796485       -4.8652594812        1.8639649972
 C          2.2115090457       -3.7816023304        1.3088413855
 C          2.8365492705       -3.1152028658        0.2625466526
 C          0.0093154271       -1.9812335504       -0.3831978862
 C         -1.2017247026       -1.3201090750       -0.2477613607
 N         -2.4002815327       -2.0075084109       -0.4759016763
 C         -3.3751138599       -1.6380869501       -1.3829787252
 C         -3.3754367356       -0.5960366959       -2.2996089582
 C         -4.5104935500       -0.4174107041       -3.0678158879
 C         -5.6100641718       -1.2632246397       -2.9466152492
 C         -5.5963256716       -2.3296571599       -2.0665990459
 C         -4.4695829755       -2.5268368842       -1.2832103579
 C         -4.1152118447       -3.4951602365       -0.2810558012
 C         -4.7613313538       -4.5982238476        0.2547443538
 C         -4.1292858582       -5.3143838659        1.2553975383
 C         -2.8746332943       -4.9349066515        1.7295352995
 C         -2.2105142211       -3.8406612804        1.2104191418
 C         -2.8310759831       -3.1281409556        0.1922691318
 N         -3.5492621604        0.0887405884        0.5978937387
 C         -5.8747466035       -1.2895417367        1.3434919304
 C         -7.0283845185       -2.0437341090        1.4287913919
 H         -9.1269047094       -2.1295310519        1.0148942028
 H         -9.2109861189        0.1335853282        0.0432144980
 H         -7.1403809341        1.4918304391       -0.1004267265
 H         -5.7192211177        4.3041385000        0.6583222663
 H         -5.7709210088        6.7794259481        0.5534508924
 H         -3.6950364254        8.0325559717        0.1082648597
 H         -1.5733848275        6.8252720022       -0.2350253913
 H         -1.5316177800        4.3497518642       -0.1307875570
 H          0.0022649631        1.7853161012        0.4315152315
 H          5.6966213179        4.3567289792        0.5956001333
 H          5.7106283966        6.8337286535        0.5176447208
 H          3.6031080514        8.0627769676        0.1651314079
 H          1.4861578620        6.8300956648       -0.1110776590
 H          1.4823261737        4.3533953874       -0.0378588180
 H          4.9861252951       -1.6331443456        1.6674093660
 H          7.0600554821       -2.9704226642        1.7981142437
 H          9.1792665815       -2.0381745310        0.9393843182
 H          9.2286105121        0.2285729866       -0.0256663746
 H          7.1405825780        1.5606325357       -0.1530341860
 H          2.5620684642        0.0017565640       -2.4162920100
 H          4.5786509828        0.2652768208       -3.8168761302
 H          6.4931976042       -1.2409932695       -3.5682987934
 H          6.4385278593       -3.0983842991       -1.9379857640
 H          5.7160437549       -4.9242985920        0.0143801714
 H          4.5859230422       -6.1332478405        1.8533842725
 H          2.4009213727       -5.4017511601        2.6790159371
 H          1.2541538238       -3.4523266905        1.6825862664
 H          0.0125669953       -3.0273358547       -0.6579279268
 H         -2.5247697184        0.0623047611       -2.3983211471
 H         -4.5450786893        0.3971814908       -3.7758523382
 H         -6.4826903811       -1.0840204190       -3.5566241743
 H         -6.4453917577       -2.9908330522       -1.9822876751
 H         -5.7382892818       -4.8860799669       -0.1028115198
 H         -4.6153483840       -6.1777917273        1.6849240624
 H         -2.4143715777       -5.5076614811        2.5209184482
 H         -1.2458022146       -3.5413887920        1.5902275132
 H         -4.9345911226       -1.6704143339        1.7133770445
 H         -6.9916467393       -3.0317516112        1.8645883940
  106
       -171.29258291
 C         -8.3313054397       -1.0867827902       -0.9623982457
 C         -8.3144934280       -0.0646100133       -0.0260163462
 C         -7.1376073593        0.6044546474        0.2490354807
 C         -5.9651482267        0.2446881063       -0.4092696461
 C         -4.7039045806        0.9026027793       -0.0753292991
 N         -4.7324808922        2.1092384340        0.4812627985
 C         -3.5365468032        2.6598709443        0.7527140810
 C         -3.5039041464        4.0303174337        1.2507044925
 C         -2.2865845317        4.6290074099        1.5781416937
 C         -2.2573724636        5.9305325121        2.0368909913
 C         -3.4370775140        6.6469404559        2.1751665874
 C         -4.6493805650        6.0563959134        1.8523815758
 C         -4.6872650762        4.7550756966        1.3916334978
 N         -2.3894628883        2.0256783403        0.6091008406
 C         -2.4394116192        0.7882241820        0.1012298431
 C         -1.2197214883        0.0328910184        0.0169728238
 C         -0.0045845812        0.6945876664        0.1115951549
 C          1.2101154279        0.0435135854       -0.0358987446
 C          2.4301262667        0.7770279537        0.1678293550
 N          2.3862376691        2.1133103800        0.1211874159
 C          3.5348190785        2.7528177051        0.2292375814
 C          3.5092984775        4.2108574072        0.2379017314
 C          4.6893165350        4.9327287030        0.4170177318
 C          4.6580959454        6.3131917222        0.4361810506
 C          3.4559755561        6.9857062686        0.2773813900
 C          2.2797150825        6.2724956609        0.0986816762
 C          2.3021117831        4.8925474381        0.0784413537
 N          4.7263908450        2.1368536007        0.3153531262
 C          4.6898025983        0.8124112360        0.4150171093
 C          5.9464001164        0.0738519655        0.5213199172
 C          5.9579636709       -1.2046551865        1.0721466454
 C          7.1363107489       -1.9227669204        1.1235403813
 C          8.3059962773       -1.3744943249        0.6214813781
 C          8.2991819549       -0.0988327280        0.0789171812
 C          7.1255312324        0.6282910920        0.0321469200
 N          3.5734851983        0.1084464419        0.3936363937
 C          1.2036666852       -1.3485669834       -0.3547857798
 N          2.4019874197       -2.0209641032       -0.6263035855
 C          3.3382631729       -1.6351406051       -1.5661507187
 C          3.2808519597       -0.6034341708       -2.4926667351
 C          4.3834732146       -0.4064113880       -3.3025790906
 C          5.5070766027       -1.2238958642       -3.2110876795
 C          5.5509844139       -2.2794571079       -2.3188428713
 C          4.4576435852       -2.4950427562       -1.4940482959
 C          4.1628861832       -3.4578826065       -0.4675908313
 C          4.8563917160       -4.5349972983        0.0617786273
 C          4.2797387397       -5.2497272525        1.0963530465
 C          3.0328277722       -4.8952216594        1.6089594031
 C          2.3203961696       -3.8284436712        1.0963183549
 C          2.8863533980       -3.1176765585        0.0451296114
 C         -0.0037057751       -2.0292970902       -0.3973593950
 C         -1.2112564342       -1.3804533802       -0.1885263690
 N         -2.4068621556       -2.1099231474       -0.1686232257
 C         -2.8924602071       -2.9001565606       -1.1820171530
 C         -2.3411578912       -3.1734175585       -2.4278811239
 C         -3.0521206789       -3.9967072049       -3.2793834656
 C         -4.2831702234       -4.5358574704       -2.9089774817
 C         -4.8455174675       -4.2532481937       -1.6769813527
 C         -4.1536651919       -3.4261172722       -0.8060517811
 C         -4.4370564807       -2.9033963099        0.5032167018
 C         -5.5134956112       -3.0220302514        1.3689093192
 C         -5.4618739691       -2.3591324683        2.5813070570
 C         -4.3467697774       -1.6072490596        2.9424831630
 C         -3.2607490998       -1.4770382309        2.0975187060
 C         -3.3265721996       -2.1062333799        0.8623235872
 N         -3.5904038719        0.2385723752       -0.3217505336
 C         -5.9876980908       -0.7756062139       -1.3563867163
 C         -7.1687576736       -1.4359721214       -1.6313319711
 H         -9.2533600025       -1.6088317309       -1.1737367579
 H         -9.2232857626        0.2084474938        0.4903419694
 H         -7.1032822612        1.3992739292        0.9784165387
 H         -1.3779338860        4.0575054401        1.4687431049
 H         -1.3132119756        6.3908256014        2.2897982929
 H         -3.4115852167        7.6655172221        2.5343784259
 H         -5.5669861266        6.6164086135        1.9602804368
 H         -5.6211849098        4.2812443426        1.1313367161
 H         -0.0050032827        1.7555557114        0.3106594423
 H          5.6149848203        4.3926492095        0.5432994470
 H          5.5729658700        6.8706720160        0.5766146649
 H          3.4357121710        8.0657012724        0.2925845435
 H          1.3437804749        6.7974219185       -0.0269454437
 H          1.3964760109        4.3232984818       -0.0639104339
 H          5.0402084681       -1.6163470732        1.4640458799
 H          7.1414846600       -2.9134408235        1.5541631233
 H          9.2258241092       -1.9402588551        0.6564385577
 H          9.2130929120        0.3271070998       -0.3088013370
 H          7.0988554204        1.6208970897       -0.3907667378
 H          2.4118140036        0.0338159915       -2.5669230958
 H          4.3734066979        0.4005086695       -4.0202497285
 H          6.3532882178       -1.0307175799       -3.8531797025
 H          6.4190582541       -2.9180588690       -2.2571813063
 H          5.8279344838       -4.8030822797       -0.3248365789
 H          4.8039411899       -6.0920788448        1.5228676285
 H          2.6170917407       -5.4651622700        2.4266141636
 H          1.3621082530       -3.5479900106        1.5064270173
 H         -0.0036196084       -3.0922141802       -0.5968019352
 H         -1.3952181464       -2.7460389721       -2.7240722786
 H         -2.6480373552       -4.2253075279       -4.2544093073
 H         -4.8066668032       -5.1775801390       -3.6021051950
 H         -5.8047278338       -4.6619260861       -1.3973290163
 H         -6.3744035331       -3.6132964176        1.0960793381
 H         -6.2950934090       -2.4279489447        3.2644766503
 H         -4.3300748952       -1.1136390370        3.9028297837
 H         -2.3980414956       -0.8925726455        2.3820545643
 H         -5.0758010919       -1.0314144025       -1.8744126683
 H         -7.1813713744       -2.2265923200       -2.3673949910
  106
       -171.29249882
 C         -8.2535378641       -1.0564326712       -1.3030917141
 C         -8.2913068671       -0.0432109059       -0.3575188023
 C         -7.1304088588        0.6136602714        0.0018090979
 C         -5.9195806413        0.2507829811       -0.5810261925
 C         -4.6786028993        0.8999655206       -0.1644524107
 N         -4.7363901102        2.0933105403        0.4165074198
 C         -3.5572148937        2.6399121784        0.7569903425
 C         -3.5554740995        3.9963495782        1.2922557835
 C         -2.3595103145        4.5896592524        1.6983703516
 C         -2.3607357700        5.8770605017        2.1964243793
 C         -3.5496910525        6.5844067687        2.2959587226
 C         -4.7409053479        5.9993838314        1.8940686548
 C         -4.7482934184        4.7123686442        1.3937110834
 N         -2.4001686185        2.0130949646        0.6505298227
 C         -2.4261896306        0.7868556841        0.1190186238
 C         -1.2019846525        0.0303559638        0.0708128631
 C          0.0106532139        0.6930022753        0.1600282576
 C          1.2270694189        0.0394241370        0.0184968342
 C          2.4462318026        0.7760209079        0.1961610957
 N          2.3960234722        2.1139662364        0.1638692597
 C          3.5430343671        2.7587905015        0.2360476330
 C          3.5088060078        4.2164157336        0.2694294218
 C          2.2879853117        4.8904913633        0.2158439394
 C          2.2567140847        6.2694778032        0.2646909216
 C          3.4378996637        6.9896638889        0.3655760340
 C          4.6536456622        6.3249323998        0.4169731828
 C          4.6936792241        4.9452838012        0.3699815300
 N          4.7415238545        2.1486270166        0.2647454240
 C          4.7147011172        0.8233130389        0.3594884021
 C          5.9772591713        0.0885503704        0.4076132264
 C          6.0207933431       -1.1852679267        0.9674826556
 C          7.2011076553       -1.9020641788        0.9594098413
 C          8.3402547557       -1.3576273929        0.3878910534
 C          8.3020423383       -0.0862246424       -0.1632536591
 C          7.1269759445        0.6400614291       -0.1499725978
 N          3.6022135731        0.1146469720        0.3812799194
 C          1.2179166208       -1.3578898407       -0.2792482472
 N          2.4132391848       -2.0340372597       -0.5564711497
 C          3.3251688845       -1.6768914414       -1.5311673093
 C          3.2508342052       -0.6643991405       -2.4772534262
 C          4.3297185002       -0.4980516445       -3.3251632236
 C          5.4463777760       -1.3267317861       -3.2511709201
 C          5.5064693759       -2.3629566312       -2.3376538132
 C          4.4370550512       -2.5475639223       -1.4747350737
 C          4.1625942800       -3.4870896850       -0.4213652412
 C          4.8583089265       -4.5631389863        0.1070882635
 C          4.3027080766       -5.2533411356        1.1695875717
 C          3.0746512782       -4.8757102385        1.7104436711
 C          2.3602251710       -3.8094716566        1.1994778314
 C          2.9047300654       -3.1233493575        0.1208753955
 C          0.0115832730       -2.0403228891       -0.3023512800
 C         -1.1960825537       -1.3866883809       -0.1063955903
 N         -2.3951126055       -2.1090972912       -0.0777277545
 C         -2.8783186095       -2.9220722965       -1.0752977183
 C         -2.3063715296       -3.2539127097       -2.2972516629
 C         -3.0192006169       -4.0887848984       -3.1359580962
 C         -4.2725416641       -4.5819028889       -2.7768790051
 C         -4.8561947161       -4.2389369060       -1.5704951297
 C         -4.1624324453       -3.3994068541       -0.7131142163
 C         -4.4646514627       -2.8199552067        0.5676432625
 C         -5.5691734202       -2.8700850185        1.4039289295
 C         -5.5318958787       -2.1606281492        2.5904955829
 C         -4.4034248210       -1.4315687841        2.9565209135
 C         -3.2895385597       -1.3690602850        2.1403692444
 C         -3.3406616284       -2.0422171330        0.9275655982
 N         -3.5526585950        0.2404802389       -0.3665415004
 C         -5.8864220864       -0.7622294793       -1.5356850348
 C         -7.0514472994       -1.4104861924       -1.8950510763
 H         -9.1635732465       -1.5681060954       -1.5812529895
 H         -9.2306240658        0.2329219078        0.0990184534
 H         -7.1384724911        1.4017701263        0.7390784447
 H         -1.4437487853        4.0246013042        1.6183675651
 H         -1.4331852025        6.3336732099        2.5102767142
 H         -3.5479290005        7.5918157637        2.6862320772
 H         -5.6657359431        6.5525025339        1.9714734785
 H         -5.6652184135        4.2428244240        1.0723638596
 H          0.0114323638        1.7576191875        0.3385399973
 H          1.3781607584        4.3161247394        0.1345763803
 H          1.3098053599        6.7880992098        0.2232366546
 H          3.4107261079        8.0689566141        0.4040910032
 H          5.5724174927        6.8878767223        0.4955975133
 H          5.6303877154        4.4113298334        0.4140209704
 H          5.1265778495       -1.5948239517        1.4125436932
 H          7.2310855120       -2.8893864747        1.3966174529
 H          9.2608883163       -1.9230698214        0.3750268506
 H          9.1925025341        0.3371210310       -0.6046367001
 H          7.0761298016        1.6298131425       -0.5773074425
 H          2.3871387269       -0.0185827433       -2.5385572196
 H          4.3059433498        0.2929693793       -4.0599981156
 H          6.2737529636       -1.1580312727       -3.9239874972
 H          6.3684891462       -3.0108170229       -2.2891458378
 H          5.8152224009       -4.8499963577       -0.3019360967
 H          4.8290593741       -6.0947279268        1.5953809016
 H          2.6754936400       -5.4269470725        2.5489090689
 H          1.4166351561       -3.5109394217        1.6303742067
 H          0.0120911671       -3.1071413524       -0.4794537194
 H         -1.3434961118       -2.8615226786       -2.5870270302
 H         -2.5984775376       -4.3628993141       -4.0920290489
 H         -4.7964593628       -5.2349272823       -3.4590420362
 H         -5.8334364949       -4.6096026929       -1.3006118515
 H         -6.4409759360       -3.4433728727        1.1273321445
 H         -6.3871896360       -2.1746778038        3.2492882658
 H         -4.3982021539       -0.9009904384        3.8971337874
 H         -2.4169567217       -0.8018706950        2.4297920977
 H         -4.9439488717       -1.0210594831       -1.9940086215
 H         -7.0208052605       -2.1948361855       -2.6372052118
  106
       -171.29244331
 C         -8.2881513757       -0.9552885473       -1.3411186696
 C         -7.1081305111       -1.2300292638       -2.0140446100
 C         -5.9370476774       -0.5994367473       -1.6428812699
 C         -5.9429881256        0.3177858724       -0.5953964457
 C         -4.6945638311        0.9383938291       -0.1595246794
 N         -4.7435443373        2.0732216314        0.5291438420
 C         -3.5624293019        2.5863678089        0.9095854721
 C         -3.5540730275        3.8751289920        1.5919816062
 C         -2.3561132797        4.4025773358        2.0760290377
 C         -2.3485178974        5.6237181298        2.7191503939
 C         -3.5302125832        6.3305937202        2.8859403047
 C         -4.7232068901        5.8106945574        2.4072703007
 C         -4.7398966226        4.5891461082        1.7632470980
 N         -2.4051153980        1.9783284711        0.7229794015
 C         -2.4389987510        0.8127568080        0.0701147870
 C         -1.2116663846        0.0635107958       -0.0328728788
 C         -0.0016520655        0.7249850824        0.0997502050
 C          1.2184415037        0.0783405455       -0.0475937221
 C          2.4315660635        0.8467843771       -0.0397697686
 N          2.3929573706        2.0992428675        0.4320992676
 C          3.5388026713        2.7479299887        0.4965107489
 C          3.5159443837        4.1386521407        0.9342291679
 C          2.3056827752        4.7508274028        1.2632528853
 C          2.2842895837        6.0737023338        1.6559491177
 C          3.4646748183        6.7987566549        1.7267673475
 C          4.6700397712        6.1948533321        1.4029009376
 C          4.7002057135        4.8720688650        1.0075096377
 N          4.7269249205        2.1974213839        0.1884283897
 C          4.6884577295        0.9664020163       -0.3104867272
 C          5.9415468867        0.3008372011       -0.6597520208
 C          5.9413914001       -0.7481992029       -1.5750146663
 C          7.1161476687       -1.4156290857       -1.8600502176
 C          8.2948778275       -1.0453274427       -1.2322044018
 C          8.3005439866        0.0054020677       -0.3279100294
 C          7.1301024752        0.6819427042       -0.0438651673
 N          3.5707999329        0.2891880561       -0.4886667565
 C          1.2194418715       -1.3357053097       -0.2533218055
 N          2.4207248029       -2.0545445487       -0.2591027054
 C          2.8735806655       -2.8776993346       -1.2609407076
 C          2.2838823167       -3.1914301832       -2.4791920011
 C          2.9664632526       -4.0422199374       -3.3263456951
 C          4.2093899121       -4.5693169311       -2.9786320225
 C          4.8105179603       -4.2473249311       -1.7750706811
 C          4.1460669477       -3.3932873057       -0.9087794837
 C          4.4686794870       -2.8339662492        0.3759886730
 C          5.5706574838       -2.9300458577        1.2120440487
 C          5.5533733079       -2.2384357272        2.4091772269
 C          4.4471677478       -1.4807779278        2.7852099565
 C          3.3369052641       -1.3717583686        1.9691725997
 C          3.3686886167       -2.0281187183        0.7469820661
 C          0.0130075399       -2.0033969338       -0.3926189564
 C         -1.2004875741       -1.3386317953       -0.2938165528
 N         -2.3964730690       -2.0604750218       -0.4092335146
 C         -2.8028654548       -2.7616163321       -1.5182374657
 C         -2.1541314044       -2.9368513363       -2.7338534807
 C         -2.7960006410       -3.6792651540       -3.7056050609
 C         -4.0551037053       -4.2336770781       -3.4805081629
 C         -4.7131421688       -4.0494206558       -2.2775853525
 C         -4.0901655374       -3.3060742926       -1.2870348633
 C         -4.4723362946       -2.8922250581        0.0362350310
 C         -5.6127390448       -3.0722157048        0.8039665756
 C         -5.6540326316       -2.5103009700        2.0666426064
 C         -4.5693553361       -1.7985461080        2.5730517771
 C         -3.4206370094       -1.6093683921        1.8282767477
 C         -3.3913456883       -2.1364392498        0.5449070655
 N         -3.5693889280        0.3075693931       -0.4465473169
 C         -7.1328313726        0.6037689338        0.0680661826
 C         -8.2991761011       -0.0364621017       -0.3030650675
 H         -9.2021704933       -1.4551231279       -1.6277965784
 H         -7.0996434169       -1.9398875718       -2.8282411410
 H         -5.0109919454       -0.7993982833       -2.1603679519
 H         -1.4471713503        3.8370162700        1.9411505447
 H         -1.4204999488        6.0282211610        3.0967900949
 H         -3.5215444802        7.2860184154        3.3901647222
 H         -5.6425414742        6.3626219599        2.5390510743
 H         -5.6588986240        4.1706534141        1.3825523353
 H         -0.0059290674        1.7906289881        0.2684726850
 H          1.3964762745        4.1733772658        1.2006536310
 H          1.3453172959        6.5467960257        1.9043439450
 H          3.4448398214        7.8347840673        2.0323289424
 H          5.5881478876        6.7618316279        1.4565539681
 H          5.6283900127        4.3886822448        0.7441951026
 H          5.0171135661       -1.0205579114       -2.0616422541
 H          7.1112230540       -2.2283053664       -2.5717092299
 H          9.2119266207       -1.5732441481       -1.4505806070
 H          9.2216518596        0.2946220611        0.1566819851
 H          7.1133457199        1.4987098923        0.6614925191
 H          1.3284637063       -2.7744761256       -2.7580223259
 H          2.5305498698       -4.3033238104       -4.2791988132
 H          4.7104639074       -5.2337048332       -3.6668791078
 H          5.7783868621       -4.6471474972       -1.5131086315
 H          6.4245284426       -3.5261351909        0.9279430996
 H          6.4062289644       -2.2899886689        3.0692262685
 H          4.4565416921       -0.9661540115        3.7345661948
 H          2.4807682306       -0.7841686152        2.2663976560
 H          0.0147496294       -3.0758633099       -0.5328341274
 H         -1.1864891746       -2.4941136174       -2.9146244143
 H         -2.3157294187       -3.8309779421       -4.6609363648
 H         -4.5239715159       -4.8095163540       -4.2646117813
 H         -5.6933844615       -4.4698274786       -2.1112277461
 H         -6.4516173914       -3.6310931060        0.4178198200
 H         -6.5380067006       -2.6276370451        2.6753366730
 H         -4.6271957666       -1.3840890965        3.5685917992
 H         -2.5808896722       -1.0569328205        2.2239858380
 H         -7.1196986147        1.3179934461        0.8771473332
 H         -9.2212126290        0.1782985282        0.2171783322
  106
       -171.29221521
 C         -8.2391812227       -1.1016894145       -1.3305392207
 C         -8.2893779329       -0.1504373803       -0.3233216874
 C         -7.1419723785        0.5187313089        0.0562111285
 C         -5.9322798081        0.2306715269       -0.5689618192
 C         -4.7033079505        0.8871316385       -0.1288241694
 N         -4.7831574734        2.0403368131        0.5254833950
 C         -3.6134324974        2.5947899833        0.8886121011
 C         -3.6456490669        3.9080741934        1.5210923438
 C         -2.4625910868        4.5141253677        1.9457050082
 C         -2.4994383374        5.7568464099        2.5454950604
 C         -3.7110908681        6.4064870111        2.7293832418
 C         -4.8895024476        5.8089786006        2.3087002437
 C         -4.8613749716        4.5668141667        1.7063528827
 N         -2.4420233915        2.0076325770        0.7298453800
 C         -2.4447464111        0.8118798489        0.1309888369
 C         -1.2132147080        0.0721008072        0.0493582891
 C         -0.0003509572        0.7375205538        0.1436888591
 C          1.2139969233        0.0845234329       -0.0043773022
 C          2.4440967103        0.8084192915        0.1771882381
 N          2.4372420651        2.1387539652        0.0397113384
 C          3.6075612785        2.7469356013        0.0895594080
 C          3.6351661572        4.1987578016       -0.0418297195
 C          4.8515807875        4.8814582461       -0.0201214540
 C          4.8750247495        6.2559579109       -0.1497651827
 C          3.6912230612        6.9622862698       -0.2993327737
 C          2.4788573894        6.2886593331       -0.3182323040
 C          2.4466853202        4.9144775014       -0.1916836293
 N          4.7797954833        2.1027509200        0.2258730318
 C          4.7043365530        0.7929256589        0.4340189047
 C          5.9361207161        0.0268299718        0.6094207406
 C          5.8961456227       -1.2225861942        1.2227288676
 C          7.0503793086       -1.9714890653        1.3390208589
 C          8.2480178281       -1.4827071081        0.8413974193
 C          8.2928136898       -0.2358696094        0.2369851816
 C          7.1430049849        0.5213521098        0.1235350919
 N          3.5669445389        0.1242214923        0.4557198658
 C          1.2081406464       -1.3097484416       -0.3149618363
 N          2.4071524669       -1.9805856814       -0.5882632719
 C          3.3422397694       -1.5897148351       -1.5272208827
 C          3.2815692356       -0.5557875075       -2.4513817216
 C          4.3864731794       -0.3487914696       -3.2557536457
 C          5.5148608984       -1.1593269948       -3.1621389994
 C          5.5613908342       -2.2183679771       -2.2738741641
 C          4.4662542295       -2.4435003660       -1.4542487169
 C          4.1742941358       -3.4101421665       -0.4305462650
 C          4.8723321231       -4.4853420448        0.0964101511
 C          4.2980529109       -5.2051529067        1.1288204175
 C          3.0497316601       -4.8568207679        1.6418169484
 C          2.3328729552       -3.7918362396        1.1312646559
 C          2.8958547614       -3.0768686188        0.0815140548
 C          0.0025299832       -1.9925935248       -0.3564331121
 C         -1.2046343219       -1.3417226331       -0.1543541286
 N         -2.4024858133       -2.0677494036       -0.1403731031
 C         -2.8863984880       -2.8557497880       -1.1574053426
 C         -2.3182287026       -3.1515843733       -2.3901973405
 C         -3.0311247585       -3.9666168471       -3.2482711779
 C         -4.2806565339       -4.4749196693       -2.8973919375
 C         -4.8601848562       -4.1682284928       -1.6792404333
 C         -4.1661669947       -3.3494606323       -0.8023220577
 C         -4.4644220143       -2.8078848462        0.4958727709
 C         -5.5638707590       -2.8873233146        1.3365105897
 C         -5.5234662719       -2.2111223707        2.5422794170
 C         -4.3971412509       -1.4858356016        2.9221558409
 C         -3.2881454260       -1.3946156908        2.1020969227
 C         -3.3423885721       -2.0349458175        0.8717540385
 N         -3.5642127652        0.2691664428       -0.3775143494
 C         -5.8868657853       -0.7196420258       -1.5856175138
 C         -7.0386288285       -1.3803915954       -1.9644715402
 H         -9.1384133125       -1.6238671360       -1.6240316574
 H         -9.2271964578        0.0662582676        0.1670934557
 H         -7.1593999414        1.2580998315        0.8421788592
 H         -1.5286815111        3.9940125586        1.7986955145
 H         -1.5820981645        6.2238817880        2.8733801472
 H         -3.7368870642        7.3780594862        3.2010820351
 H         -5.8323676595        6.3164793057        2.4526577548
 H         -5.7681575476        4.0883215788        1.3698890952
 H         -0.0015752807        1.7996168687        0.3370825422
 H          5.7628217829        4.3159917223        0.0992171698
 H          5.8184260608        6.7823027410       -0.1357480248
 H          3.7132862654        8.0376404583       -0.4004258408
 H          1.5572593315        6.8403836631       -0.4339599338
 H          1.5122770890        4.3751626877       -0.2103184635
 H          4.9568139487       -1.5879082545        1.6095653012
 H          7.0149190722       -2.9397205241        1.8167226370
 H          9.1492070302       -2.0724469354        0.9279043612
 H          9.2286703765        0.1439638718       -0.1462251130
 H          7.1562209467        1.4913986990       -0.3492451911
 H          2.4090795100        0.0765258238       -2.5276347469
 H          4.3743031260        0.4611386794       -3.9699588803
 H          6.3627485365       -0.9581593000       -3.7995496767
 H          6.4331619649       -2.8517554603       -2.2104983318
 H          5.8453128440       -4.7479141251       -0.2903185472
 H          4.8253072351       -6.0467879344        1.5530327416
 H          2.6363292683       -5.4299198585        2.4584510946
 H          1.3736796050       -3.5159710473        1.5422995551
 H          0.0037498747       -3.0563400208       -0.5510331934
 H         -1.3580337859       -2.7474981962       -2.6728012840
 H         -2.6136033174       -4.2124422377       -4.2134118597
 H         -4.8049557362       -5.1111832385       -3.5949556022
 H         -5.8342504940       -4.5510543950       -1.4149507588
 H         -6.4335376434       -3.4586495179        1.0493964934
 H         -6.3744501883       -2.2491147121        3.2056323788
 H         -4.3896826523       -0.9812748155        3.8769277140
 H         -2.4171561081       -0.8302509243        2.4016601534
 H         -4.9450036219       -0.9236035721       -2.0721685411
 H         -6.9989136332       -2.1163404201       -2.7542313999
