111
 energy: -156.163520641027 gnorm: 0.000089342286 xtb: 6.7.1 (edcfbbe)
C           -4.91905404476582        5.10045261886123       -2.15837189529527
C           -3.67177483386458        4.76983864814634       -1.32615584136970
C           -2.44332222598981        5.29572323230513       -2.07368382197113
C           -3.74381879562391        5.49017961602284        0.02827556503678
C           -3.62254962900748        3.26848683274230       -1.08924993453965
C           -2.58750032741358        2.46669791114241       -1.57726468220886
C           -2.52965328722119        1.10354912444527       -1.35118289680530
C           -3.53524070656414        0.51898731774869       -0.59659591546891
C           -4.61720745340922        1.30077165266119       -0.13002158498193
C           -4.65328947073000        2.66114208279452       -0.37506083778432
C           -5.50579560788887        0.39472177282036        0.55197019944962
C           -6.70353039447647        0.57301649436713        1.22439080198657
C           -7.32435644020328       -0.51518826542031        1.82562300790262
C           -8.64053441993460       -0.39364608964016        2.57644988700310
C           -9.67607339757703       -1.32541351298672        1.93045311774418
C           -8.42012631672367       -0.79652283316132        4.04180194765179
C           -9.20340451168310        1.03016898493563        2.55333115348080
C           -6.70060560549516       -1.76809500643172        1.75003265759315
C           -5.50653813513267       -1.97325171841911        1.08957515019682
C           -4.91353120766422       -0.88529153001823        0.46331762325122
N           -3.72688591539004       -0.79854713264584       -0.23220678074079
C           -2.84884190988457       -1.84836719900860       -0.51310933265695
C           -3.37405876807885       -3.07056228886553       -1.02650986783187
C           -2.49938184676224       -4.10180413872318       -1.35448589531178
C           -1.15383058085120       -3.92582530351250       -1.19110125762510
C           -0.59891943528518       -2.69433130560581       -0.70296236050414
C           -1.49781720037462       -1.66944379194020       -0.34344605898608
C            0.80269771685328       -2.65603042798420       -0.68686154928791
C            1.63560397390217       -1.58490319446023       -0.30456949040100
C            2.99806989131452       -1.68835396721123       -0.44415707928075
N            3.80842138644312       -0.59265287065843       -0.13710366570489
C            4.98092020329324       -0.61397890866462        0.58737788001914
C            5.63128846491671       -1.67103643767358        1.20942324004930
C            6.79799638133137       -1.40003173872194        1.89484825599110
C            7.33744389571884       -0.11084946967705        2.00138136458781
C            8.63509286967165        0.08181902244702        2.76944539114070
C            8.43456389991746       -0.37722229183058        4.22096640268070
C            9.09618558347836        1.54179333665743        2.79133072409545
C            9.73770642961371       -0.75620774561916        2.10604755201155
C            6.65618593709388        0.94512860492828        1.40821327049805
C            5.48533577560288        0.70058537047422        0.70945634974544
C            4.55630207177263        1.55769724522696        0.01877745387402
C            4.51209576281157        2.92563020659661       -0.19949484931407
C            3.46953949311852        3.47198748506439       -0.93771938757775
C            3.34200688160668        4.96466435138786       -1.19702538743308
C            4.43671621446711        5.77887899189183       -0.50235916412919
C            1.98264999860278        5.45153235561618       -0.67360516148287
C            3.43863802384831        5.22107126282983       -2.70787199791452
C            2.50662473369754        2.60803432349202       -1.47649758322619
C            2.52557853166857        1.24373958425186       -1.27239920462922
C            3.54329169532591        0.71497161456617       -0.48997021873555
C            3.60093427683707       -2.87735986044925       -0.94986115654325
C            2.79195563518277       -3.95469731792456       -1.29778908132848
C            1.43547561919465       -3.85416751657284       -1.16308526459881
S            0.17716680123314       -5.05897494012585       -1.54431751334123
O            0.20202722166716       -5.41800059229595       -2.94238699691308
O            0.19733012610138       -6.15532520269111       -0.60561616841018
H           -5.82870402263883        4.80541329483169       -1.64281687404685
H           -4.88369336823447        4.57847772639469       -3.11233519536060
H           -4.96770996113337        6.16994850405827       -2.35123043020526
H           -1.53130284718614        5.08903237725093       -1.51804392457395
H           -2.36795486383721        4.85744704096558       -3.06605489448590
H           -2.52661756043461        6.37420917148918       -2.19110723263964
H           -2.87519459230140        5.23951219963398        0.63369230377614
H           -3.76006273974101        6.56738971750293       -0.12251374793804
H           -4.63633390190491        5.21259295742269        0.58146754286262
H           -1.79554712582692        2.90732814503635       -2.15918420943726
H           -1.72704841369123        0.51484439263329       -1.76736295533379
H           -5.48820202873948        3.23776207123716       -0.00854280912507
H           -7.12931667097544        1.56119432988973        1.27245637388539
H           -9.81849242938650       -1.06157869415943        0.88455173308323
H           -9.36355366995646       -2.36443478577762        1.98021916774699
H          -10.63129770217474       -1.23348379249207        2.44274377575822
H           -7.67146829150797       -0.15350403658898        4.49997454343017
H           -9.34867990801193       -0.69753205156455        4.59976378735209
H           -8.08169534592131       -1.82532329375414        4.12492657333480
H           -8.52463727041317        1.72851445956289        3.03749597637989
H           -9.39136601164326        1.36035923029891        1.53423647892059
H          -10.14785168030743        1.05403609411505        3.09296822077571
H           -7.15998899674799       -2.61663466236307        2.23254257050263
H           -5.04433883262855       -2.94794174507163        1.07619757821024
H           -4.43166536585232       -3.15938344727724       -1.21041636785489
H           -2.87597242187684       -5.03586172675193       -1.74232295766641
H           -1.12401820787170       -0.74888857681124        0.07747470236763
H            1.20238902442187       -0.68831600533663        0.11112770380019
H            5.23434390841334       -2.67346279547532        1.17244974823288
H            7.30402000712808       -2.22529572670242        2.37105162166889
H            9.34869627494157       -0.22365530572159        4.79029288143539
H            8.17511765062552       -1.43066763498248        4.27334913754243
H            7.63582304515112        0.19428893435691        4.68918006382791
H            9.27192253846122        1.91228671339438        1.78401175622044
H            8.36410098642830        2.17700533198988        3.28466354344280
H           10.03053018056434        1.61730712873315        3.34367260460994
H            9.87039903435032       -0.45043997077759        1.07031118933370
H           10.68011431304041       -0.61560732255641        2.63087604219497
H            9.49609621032910       -1.81509576356180        2.12021487336827
H            7.01492656190711        1.95812323799062        1.48049093041305
H            5.29542853378550        3.54153198930172        0.20930131749726
H            4.40812545412831        5.63300205813138        0.57506505840810
H            4.28270024642913        6.83723213604306       -0.70237608103520
H            5.42222690280610        5.50915357057676       -0.87448597924580
H            1.16013234593588        4.96039178230821       -1.18574031415561
H            1.89353976168752        5.24577579011273        0.39113378846350
H            1.88542469800561        6.52399295083411       -0.82769656802098
H            3.36597022077220        6.28725023173962       -2.91128734394872
H            2.64264359390611        4.71634579196455       -3.24809534526060
H            4.39125547353860        4.86051337503059       -3.09008150475570
H            1.71179415754238        3.01436545506994       -2.08255070891715
H            1.77797204992275        0.61006937266622       -1.72347590575324
H            4.66535851749930       -2.90673835485512       -1.11208991285650
H            3.22800305043568       -4.86548177604982       -1.67865814495712
