  111
       -156.25335246
 C         -4.7034911481        5.0587387270       -2.1980776186
 C         -3.4080412557        4.6925671097       -1.4597507166
 C         -2.2272766383        5.1261082705       -2.3328342723
 C         -3.3277535840        5.4641050362       -0.1347737535
 C         -3.4109988829        3.1993895078       -1.1635525093
 C         -2.4255337865        2.3372585078       -1.6500094273
 C         -2.4201592836        0.9806657478       -1.3797098394
 C         -3.4277138943        0.4650077621       -0.5824605468
 C         -4.4546247985        1.3078186570       -0.1081200895
 C         -4.4365288667        2.6634160699       -0.3950475966
 C         -5.3706260074        0.4683500912        0.6168165301
 C         -6.5430377066        0.7332566213        1.3112454678
 C         -7.2131902893       -0.2985916585        1.9479974630
 C         -8.5071145277       -0.0843926044        2.7194315057
 C         -9.6093053538       -0.9607597401        2.1078306916
 C         -8.2877568100       -0.4733135462        4.1882615890
 C         -8.9817429693        1.3708592317        2.6784998608
 C         -6.6666982042       -1.5869544930        1.8871063895
 C         -5.5034238098       -1.8782418058        1.2029422625
 C         -4.8602897859       -0.8435408198        0.5431092608
 N         -3.6802246403       -0.8390492623       -0.1824379632
 C         -2.8631232842       -1.9304715671       -0.4625013950
 C         -3.4012004456       -3.1371985656       -0.9157529331
 C         -2.5682088494       -4.1962582436       -1.2448753581
 C         -1.2062620958       -4.0296351753       -1.1412697853
 C         -0.6502952285       -2.8378628312       -0.6837072866
 C         -1.4816851411       -1.7918241263       -0.3203793636
 C          0.8091375450       -2.8065417226       -0.7150309353
 C          1.6105671861       -1.7385826450       -0.3497437009
 C          2.9887753379       -1.8072861035       -0.5613618976
 N          3.7709863707       -0.6975924921       -0.2582268493
 C          4.9872722721       -0.6915951175        0.4070825136
 C          5.7315148817       -1.7369101068        0.9300108290
 C          6.9127849473       -1.4330588921        1.5766705551
 C          7.3801525568       -0.1221758478        1.7352731817
 C          8.7050386888        0.1042573577        2.4483922988
 C          8.6112104857       -0.4492936685        3.8772282301
 C          9.0796471768        1.5862925346        2.5362638988
 C          9.8178639410       -0.6230373164        1.6803549894
 C          6.6072658391        0.9171087578        1.2439271516
 C          5.4151608362        0.6394209163        0.5884612672
 C          4.4030090451        1.4807884706        0.0085357215
 C          4.2701890411        2.8590154813       -0.1028530636
 C          3.1569215287        3.3943589234       -0.7300163455
 C          2.9118601283        4.8919652971       -0.8408387845
 C          4.0454251654        5.7200208773       -0.2300654218
 C          1.6142099584        5.2331611561       -0.0937467563
 C          2.7796449717        5.2845907601       -2.3190207291
 C          2.2149927825        2.5156800764       -1.2799314467
 C          2.3269725528        1.1433524048       -1.1901187066
 C          3.4121078486        0.6200739811       -0.5037086044
 C          3.5542640870       -2.9684167202       -1.0943803826
 C          2.7555049818       -4.0584883824       -1.4071346095
 C          1.3950343682       -3.9620190065       -1.2253574831
 S          0.1118787333       -5.1662453182       -1.5895376424
 O          0.0691427326       -5.4721132489       -2.9936745763
 O          0.1752850108       -6.2728869097       -0.6738276633
 H         -5.5794926417        4.8484311162       -1.5912650672
 H         -4.7836580132        4.4882937732       -3.1211733225
 H         -4.7080770832        6.1182566676       -2.4452861981
 H         -1.2793981248        4.9187121264       -1.8416199058
 H         -2.2482319505        4.6266500135       -3.2988111793
 H         -2.2829193450        6.1984010052       -2.5090700145
 H         -2.4147117658        5.2043118304        0.3972176614
 H         -3.3237472732        6.5354798534       -0.3241802731
 H         -4.1727579101        5.2353463600        0.5084354571
 H         -1.6327911017        2.7212240469       -2.2703407163
 H         -1.6543867259        0.3486874317       -1.8038402769
 H         -5.2323401542        3.2866016881       -0.0177050458
 H         -6.9046943877        1.7472627266        1.3439733478
 H         -9.7537381331       -0.7051615450        1.0600354878
 H         -9.3586518559       -2.0160046423        2.1693324426
 H        -10.5484385102       -0.8035814988        2.6342837466
 H         -7.4898738437        0.1269382387        4.6207602934
 H         -9.1972264699       -0.3032268808        4.7606437049
 H         -8.0162579018       -1.5206797701        4.2855086056
 H         -8.2515123278        2.0342267544        3.1361474822
 H         -9.1671112300        1.6928758082        1.6563089203
 H         -9.9128327635        1.4639664337        3.2338872407
 H         -7.1653714745       -2.3976731697        2.3957789555
 H         -5.1067275631       -2.8821420941        1.2022602660
 H         -4.4687944267       -3.2286494015       -1.0402830763
 H         -2.9726182344       -5.1290122124       -1.6046648877
 H         -1.0790254711       -0.8708084773        0.0699437392
 H          1.1859828779       -0.8570644301        0.1027935849
 H          5.4004322489       -2.7613640791        0.8555190717
 H          7.4896203099       -2.2525238723        1.9770768434
 H          9.5439736285       -0.2730282228        4.4088223269
 H          8.4171844672       -1.5181710692        3.8778989691
 H          7.8063898470        0.0433373840        4.4189890205
 H          9.1760819570        2.0246239088        1.5456364910
 H          8.3388262737        2.1444032664        3.1041415811
 H         10.0371069284        1.6885401176        3.0432037134
 H          9.8763965254       -0.2488770847        0.6602730642
 H         10.7777612203       -0.4567126990        2.1647889684
 H          9.6390299476       -1.6938315853        1.6403375428
 H          6.9040942115        1.9460193827        1.3595480822
 H          5.0440239673        3.4863880443        0.3066820218
 H          4.1629623405        5.5027649761        0.8290138698
 H          3.8159184045        6.7789152676       -0.3311007080
 H          4.9865234220        5.5298049831       -0.7408571914
 H          0.7682379630        4.6849599578       -0.4997445349
 H          1.7084169644        4.9763261484        0.9594571546
 H          1.4026889873        6.2974925864       -0.1727174241
 H          2.6425025023        6.3601520950       -2.4090579061
 H          1.9305707083        4.7961357803       -2.7885977301
 H          3.6785426708        5.0043432357       -2.8640950920
 H          1.3582286943        2.9148106144       -1.8006778514
 H          1.5908979679        0.5077123903       -1.6585645874
 H          4.6150979685       -3.0033981489       -1.2857334560
 H          3.1837446268       -4.9613503741       -1.8127908240
