  64
        -98.67820555
 C          7.9884114204       -1.6204887351        2.4436885750
 C          6.7888371242       -2.3241579287        2.3567662353
 C          5.7590267499       -1.8968233729        1.5410361760
 C          5.9575207248       -0.7413963070        0.7983994434
 C          7.1636794111       -0.0093368907        0.8959443336
 C          8.1840967151       -0.4592504043        1.7235875348
 C          7.0166283073        1.1334843593        0.0395365519
 C          7.8502752955        2.1934252775       -0.2923850583
 C          7.3948044439        3.1373184915       -1.1907030861
 C          6.1309522141        3.0268400059       -1.7670166359
 C          5.2830411159        1.9825731544       -1.4522644793
 C          5.7262806179        1.0426189132       -0.5324313959
 N          5.0986785140       -0.0936491573       -0.0652978129
 C          3.8052919586       -0.5162934129       -0.4054102400
 C          2.7272924623        0.3583986644       -0.3056261321
 C          1.4539580048       -0.0527322036       -0.6414304208
 C          1.2199951591       -1.3633187259       -1.0618456050
 N         -0.0343574238       -1.8196242329       -1.4232257556
 C         -1.2739197285       -1.3383720527       -1.0427317949
 C         -2.3778273002       -1.6013832215       -1.8580066245
 C         -3.6353587493       -1.1536137202       -1.5137020091
 C         -3.8275919367       -0.4420983957       -0.3326937819
 N         -5.1018578462        0.0280107712        0.0173708903
 C         -6.2597632649       -0.7205937414        0.0607424340
 C         -6.4474381591       -2.0748742252       -0.1772972924
 C         -7.7247026035       -2.5832847864       -0.0406659063
 C         -8.7952405339       -1.7723090864        0.3307698236
 C         -8.6113654454       -0.4290953030        0.5900625923
 C         -7.3362786312        0.1055034658        0.4601033582
 C         -6.7898534320        1.4176209617        0.6618882244
 C         -7.3407160571        2.6361354480        1.0366443933
 C         -6.5144417088        3.7389409375        1.1173796746
 C         -5.1572052056        3.6410382809        0.8174824358
 C         -4.5858835007        2.4403275352        0.4430264148
 C         -5.4071605033        1.3234247184        0.3804328524
 C         -2.7385302257       -0.2101499374        0.5025255813
 C         -1.4788032967       -0.6523610665        0.1560099077
 C          2.3100699780       -2.2298542429       -1.1810630137
 C          3.5843466649       -1.8130382424       -0.8616966319
 H          8.7701928866       -1.9890769397        3.0910952989
 H          6.6603437888       -3.2222465604        2.9428853925
 H          4.8268418908       -2.4394544921        1.4920499400
 H          9.1080597146        0.0937033029        1.8013269287
 H          8.8351232545        2.2709819690        0.1429882034
 H          8.0265662517        3.9703464306       -1.4607677416
 H          5.8084010901        3.7725114412       -2.4787040071
 H          4.3124109878        1.8955326552       -1.9169888024
 H          2.8929021992        1.3682357641        0.0385208293
 H          0.6382175674        0.6512952703       -0.5981247673
 H         -0.0469756092       -2.6015328219       -2.0618347219
 H         -2.2387262130       -2.1546441180       -2.7760991240
 H         -4.4745425535       -1.3400478501       -2.1667476799
 H         -5.6210993089       -2.7145066828       -0.4490658340
 H         -7.8971079756       -3.6339032785       -0.2225814846
 H         -9.7790608153       -2.2075440954        0.4240014628
 H         -9.4375851292        0.1963464710        0.8928246057
 H         -8.3948828918        2.7148378391        1.2557479342
 H         -6.9223522772        4.6951949474        1.4091729854
 H         -4.5387744622        4.5246970569        0.8757421377
 H         -3.5364779980        2.3766814280        0.1972130407
 H         -2.8893440905        0.3033349650        1.4402863627
 H         -0.6545956477       -0.4984032240        0.8342693459
 H          2.1488641159       -3.2376966448       -1.5368003308
 H          4.4196474781       -2.4879817296       -0.9728975401
