  50
        -69.53838212
 C         -3.3863881262        2.0922038123       -1.2521106371
 C         -2.8798064055        1.3738889110        0.0121149916
 C         -3.3869524289        2.0978557006        1.2728161649
 C         -3.4349033509       -0.0368952761        0.0153458550
 C         -4.8024623604       -0.2679853937        0.0243560545
 C         -5.3233902872       -1.5502380454        0.0289782160
 C         -4.4681020392       -2.6388096761        0.0256292578
 C         -3.1045264090       -2.4349923711        0.0166300107
 C         -2.5812197926       -1.1409702867        0.0103975901
 N         -1.2188693257       -0.9781150774       -0.0051247818
 C         -0.5753780079        0.2397387397       -0.0010367417
 C         -1.3581359360        1.4026036009        0.0103595229
 C         -0.7130961720        2.6294354235        0.0128545151
 C          0.6596823749        2.7160614634        0.0041256998
 C          1.4328966340        1.5578941923       -0.0131964157
 C          0.8322906781        0.2987775822       -0.0130756643
 C          1.6864143806       -0.9665314237       -0.0620890893
 C          1.3342704046       -1.9055768348        1.1238205633
 C          1.4722446992       -1.6497096364       -1.4324385306
 C          3.1775630896       -0.6665369183        0.0115272024
 C          4.0909955707       -1.7110204014        0.0478119020
 C          5.4551744585       -1.4830397363        0.0870484255
 C          5.9347130829       -0.1838362038        0.0913884473
 C          5.0479971629        0.8711584659        0.0553841853
 C          3.6729195607        0.6378954871        0.0112414800
 N          2.8023430685        1.6945018138       -0.0338819920
 H         -4.4726101120        2.0981873102       -1.2838148733
 H         -3.0193870461        1.5798365096       -2.1394826986
 H         -3.0384563397        3.1209906421       -1.2817128636
 H         -4.4731633757        2.1138181245        1.2985005795
 H         -3.0308731354        3.1237040845        1.3037208494
 H         -3.0297831899        1.5835093426        2.1630751233
 H         -5.4865288840        0.5675034046        0.0273848727
 H         -6.3927444621       -1.6979077606        0.0353737524
 H         -4.8629861059       -3.6439917307        0.0300422248
 H         -2.4254801608       -3.2770068357        0.0144298112
 H         -0.6663915307       -1.8163727077        0.0240936642
 H         -1.2866296264        3.5430482594        0.0215963867
 H          1.1486951328        3.6794440051        0.0069815120
 H          0.5794862058       -1.4614415556        1.7690049686
 H          2.2143524534       -2.0740232839        1.7406326315
 H          0.9856750811       -2.8801669732        0.7839691811
 H          1.9800808230       -2.6107186778       -1.4661766700
 H          0.4224621661       -1.8013797298       -1.6684717444
 H          1.8948222133       -1.0175571738       -2.2117244904
 H          3.7344729397       -2.7305612006        0.0457067012
 H          6.1404504426       -2.3165910564        0.1121950710
 H          6.9973600033        0.0057899597        0.1226363966
 H          5.4066819995        1.8911690350        0.0593876605
 H          3.1802635649        2.6288153871       -0.0125198687
