  63
  -96.0955804872000       0.310602850457833      !
 C         -6.9363493810       -0.3975825858        0.5246278616
 C         -5.7886359643        0.3861370739       -0.1381304152
 C         -6.3507550815        1.5528483181       -0.9707219158
 C         -5.0312837538       -0.5469702349       -1.0638290314
 C         -5.6985819620       -1.1575590544       -2.1166168079
 C         -5.0567411676       -2.0061018699       -2.9997185561
 C         -3.7049897886       -2.2514252013       -2.8408946061
 C         -3.0166830868       -1.6563195260       -1.8048708445
 C         -3.6668979547       -0.8087756208       -0.9031992477
 N         -2.9470611393       -0.2253395974        0.1266996457
 C         -1.5716231874       -0.5507532844        0.2724011529
 C         -1.2249244235       -1.7612598643        0.9167542539
 C          0.0818632530       -2.1037234642        1.1009816962
 C          1.1059872865       -1.2467518385        0.6412101452
 N          2.3897954032       -1.5707993690        0.8445675333
 C          3.3169545733       -0.7473713602        0.3933857985
 C          4.7090263023       -1.0605042707        0.6285730555
 C          5.0380588309       -2.2088259918        1.3543504517
 C          6.3514749549       -2.5249809355        1.6117810106
 C          7.3583870179       -1.6885674089        1.1434641401
 C          7.0474394858       -0.5558153724        0.4230085713
 C          5.7206954497       -0.2092429902        0.1417468325
 C          5.3656030640        0.9807518238       -0.6199210517
 C          6.3264506635        1.8413430865       -1.1636414491
 C          5.9660881758        2.9637860428       -1.8769994758
 C          4.6252373132        3.2727138214       -2.0755097342
 C          3.6580264083        2.4441751124       -1.5564624741
 C          4.0102823111        1.3011399178       -0.8334566753
 C          2.9675271430        0.4451211543       -0.3120468532
 N          1.7065755888        0.7833904636       -0.5012137361
 C          0.7568063074       -0.0357011529       -0.0277291018
 C         -0.6030740558        0.2961833729       -0.1964592018
 C         -3.5388078863        0.6274498208        1.0453573071
 C         -2.7756164305        1.1580294464        2.0892226607
 C         -3.3372025199        2.0099030624        3.0166866245
 C         -4.6754433891        2.3456926980        2.9217995289
 C         -5.4348717171        1.8122550742        1.8970839156
 C         -4.8962334485        0.9511472015        0.9509055684
 H         -7.5972895658       -0.8256781689       -0.2237341412
 H         -6.5310163604       -1.2076051039        1.1279708524
 H         -7.5263070927        0.2476730665        1.1692319075
 H         -6.8998690113        2.2488349401       -0.3425060692
 H         -7.0215883489        1.1895578086       -1.7443461297
 H         -5.5353736203        2.0921352032       -1.4490301277
 H         -6.7520201266       -0.9684852482       -2.2582452601
 H         -5.6070166505       -2.4654054044       -3.8066928654
 H         -3.1819802156       -2.9033762529       -3.5246357378
 H         -1.9599022862       -1.8450348430       -1.6915095813
 H         -2.0217609416       -2.4022954620        1.2643918470
 H          0.3664158280       -3.0174669119        1.5988375234
 H          4.2297269847       -2.8308998582        1.7051830644
 H          6.6009359293       -3.4118337311        2.1749004214
 H          8.3928534977       -1.9256313968        1.3453341538
 H          7.8558448643        0.0692913281        0.0791043597
 H          7.3763296611        1.6332625805       -1.0334591091
 H          6.7329644639        3.6064941399       -2.2843311542
 H          4.3484907226        4.1540219013       -2.6344388340
 H          2.6079987077        2.6494240134       -1.6933321479
 H         -0.8572669992        1.2205333407       -0.6915967795
 H         -1.7322703105        0.8952865448        2.1744095325
 H         -2.7270735360        2.4080322201        3.8137636820
 H         -5.1265044915        3.0130711584        3.6402284808
 H         -6.4798195288        2.0772865861        1.8390660881
  63
  -96.0955209851000       0.291648780747239      !
 C         -6.8719900939       -0.4884256141        0.7041310314
 C         -5.8176538849        0.3044116850       -0.0898453682
 C         -6.4998582897        1.3691014404       -0.9680447381
 C         -5.0647318470       -0.6548138928       -0.9911069553
 C         -5.7542607371       -1.3588938134       -1.9687539095
 C         -5.1177999367       -2.2302859384       -2.8329379109
 C         -3.7484866020       -2.3986764349       -2.7357417063
 C         -3.0391943020       -1.7122862681       -1.7730196157
 C         -3.6845161635       -0.8503132330       -0.8809884247
 N         -2.9417089947       -0.1792611420        0.0788207500
 C         -1.5692797613       -0.5077219465        0.2235393442
 C         -1.2346656238       -1.7503151728        0.8124466530
 C          0.0673483404       -2.1105165829        0.9913017609
 C          1.1012396733       -1.2400970939        0.5811795640
 N          2.3801648099       -1.5916788591        0.7642879155
 C          3.3178770110       -0.7555210032        0.3599103852
 C          4.7053539309       -1.1114041401        0.5569304595
 C          5.0174986121       -2.3199982892        1.1857090179
 C          6.3266093691       -2.6857735523        1.3938755334
 C          7.3459749308       -1.8402680824        0.9711203925
 C          7.0514630617       -0.6469198116        0.3483225146
 C          5.7292249349       -0.2467062909        0.1225722703
 C          5.3897997260        1.0093739747       -0.5325801040
 C          6.3626725032        1.9008838513       -0.9995013328
 C          6.0184904721        3.0840836251       -1.6160514429
 C          4.6822202235        3.4253815732       -1.7902491313
 C          3.7033438961        2.5695775526       -1.3421075422
 C          4.0388188291        1.3655999963       -0.7165798972
 C          2.9838238669        0.4856261285       -0.2634907742
 N          1.7267662974        0.8479313542       -0.4368286149
 C          0.7664045396        0.0091390091       -0.0218153085
 C         -0.5897173528        0.3565228570       -0.1898809401
 C         -3.5232518276        0.7306943788        0.9508016680
 C         -2.7394631614        1.3694075885        1.9160242718
 C         -3.2923767960        2.2777900163        2.7936601919
 C         -4.6443426982        2.5619623318        2.7305162672
 C         -5.4255129183        1.9166855738        1.7904968987
 C         -4.8951637969        0.9983350313        0.8943409774
 H         -7.5506649445       -1.0091031798        0.0341239350
 H         -6.3817533247       -1.2259728870        1.3368773530
 H         -7.4579894911        0.1711054019        1.3380430812
 H         -5.7495201607        1.9124931028       -1.5388036025
 H         -7.0492869617        2.0810087003       -0.3590996289
 H         -7.1956824816        0.9110372646       -1.6652650857
 H         -6.8215430943       -1.2271791058       -2.0640319976
 H         -5.6851279440       -2.7637317805       -3.5802606183
 H         -3.2279519702       -3.0609189368       -3.4114094604
 H         -1.9688722256       -1.8381288898       -1.7136421923
 H         -2.0385956567       -2.4024113930        1.1211157795
 H          0.3415453046       -3.0490347943        1.4470489705
 H          4.1996840962       -2.9486510803        1.5009788036
 H          6.5630687567       -3.6195906373        1.8815358864
 H          8.3774800088       -2.1186745604        1.1309200110
 H          7.8697224215       -0.0177818312        0.0365880484
 H          7.4094951521        1.6702959003       -0.8835462984
 H          6.7945794842        3.7491246155       -1.9659189512
 H          4.4180699707        4.3538672383       -2.2738666715
 H          2.6564291053        2.8002621450       -1.4612077760
 H         -0.8325969304        1.3061389194       -0.6411359607
 H         -1.6858904204        1.1466055068        1.9822021830
 H         -2.6642297425        2.7597719063        3.5279151623
 H         -5.0892349101        3.2722465348        3.4105635562
 H         -6.4823209684        2.1352652894        1.7618892353
  63
  -96.0953284505000       0.237890658999924      !
 C         -6.9069291311       -0.6820242333        0.2120886452
 C         -5.8004851698        0.3181745142       -0.1701206103
 C         -6.4179417095        1.5912945382       -0.7771847550
 C         -4.9006314522       -0.3299844259       -1.2048125729
 C         -5.4445568815       -0.7429071661       -2.4136860883
 C         -4.6864985511       -1.3676896704       -3.3858646329
 C         -3.3457619546       -1.6060976618       -3.1451562983
 C         -2.7796284380       -1.2054371370       -1.9534707136
 C         -3.5376117149       -0.5497071170       -0.9790527932
 N         -2.9422116916       -0.1531135248        0.2108891068
 C         -1.5688924714       -0.4263773030        0.4318265514
 C         -1.2191276423       -1.4390592402        1.3568569521
 C          0.0870474505       -1.7427265853        1.6006180771
 C          1.1117541486       -1.0412670987        0.9273146716
 N          2.3952539948       -1.3353724981        1.1705872379
 C          3.3218773098       -0.6535519043        0.5229028120
 C          4.7148956281       -0.9507244572        0.7723113692
 C          5.0464479558       -1.9522117289        1.6893522354
 C          6.3613376645       -2.2582346174        1.9506881857
 C          7.3677019093       -1.5599319510        1.2929291608
 C          7.0543026914       -0.5705265422        0.3866620216
 C          5.7256707537       -0.2366747914        0.0985750829
 C          5.3679624461        0.8033369309       -0.8567317846
 C          6.3264038476        1.5444582223       -1.5580439964
 C          5.9630727441        2.5224972354       -2.4580421854
 C          4.6215221826        2.8003333979       -2.6943170331
 C          3.6567052683        2.0893078873       -2.0200675280
 C          4.0119334750        1.0948234662       -1.1044480457
 C          2.9709148336        0.3670811785       -0.4127089823
 N          1.7094314639        0.6626611039       -0.6625837529
 C          0.7608408846       -0.0222179809       -0.0080441900
 C         -0.5982674287        0.2714866787       -0.2380651811
 C         -3.6642987889        0.4719856337        1.2173015935
 C         -3.0062034961        0.9075951659        2.3716721260
 C         -3.6971538155        1.5209239668        3.3951568016
 C         -5.0605147022        1.7229207631        3.2814008015
 C         -5.7079949027        1.3221978371        2.1276276110
 C         -5.0369227868        0.7029628980        1.0820189243
 H         -7.4944075898       -0.9630426301       -0.6575508430
 H         -6.4624400572       -1.5828792220        0.6313319629
 H         -7.5775769253       -0.2543352806        0.9522610262
 H         -5.6299821219        2.2948404928       -1.0395714867
 H         -7.0870418179        2.0741744096       -0.0704083126
 H         -6.9831256892        1.3588579879       -1.6754780005
 H         -6.4936940300       -0.5771906304       -2.6067415758
 H         -5.1414288651       -1.6728688759       -4.3158354475
 H         -2.7364862940       -2.1073713754       -3.8823763958
 H         -1.7354817509       -1.4080822615       -1.7726513430
 H         -2.0144662795       -1.9673833413        1.8620788900
 H          0.3705370137       -2.5148342529        2.2986616671
 H          4.2387487845       -2.4722344171        2.1800655392
 H          6.6127000257       -3.0329265678        2.6595987699
 H          8.4035955584       -1.7929478313        1.4921616412
 H          7.8623924450       -0.0515186739       -0.1035702464
 H          7.3768555392        1.3578512648       -1.4023445643
 H          6.7281928079        3.0759847913       -2.9827351257
 H          4.3424907653        3.5677282772       -3.4007474756
 H          2.6060654432        2.2765506006       -2.1769761521
 H         -0.8504687990        1.0447870234       -0.9471911678
 H         -1.9397056222        0.7703523036        2.4633007455
 H         -3.1663078836        1.8441599358        4.2781798618
 H         -5.6139398634        2.1983105339        4.0767692197
 H         -6.7692974712        1.5015278594        2.0443705757
  63
  -96.0946927677000       0.121405343383869      !
 C         -6.8081314465       -0.3962099363        0.9218465701
 C         -5.8216563797        0.2876862360       -0.0425701775
 C         -6.5763354423        1.2251024249       -1.0029486672
 C         -5.1214876603       -0.7762995291       -0.8635830023
 C         -5.8684904805       -1.5932122475       -1.7018242166
 C         -5.2821515374       -2.5496245861       -2.5089475747
 C         -3.9051365384       -2.6802039842       -2.5081035598
 C         -3.1408000044       -1.8853342224       -1.6807102248
 C         -3.7351087775       -0.9523686310       -0.8245374813
 N         -2.9365951527       -0.1922774784        0.0209368443
 C         -1.5691169180       -0.5337405162        0.1393959632
 C         -1.2342824881       -1.7999524977        0.6799936586
 C          0.0660459038       -2.1773558605        0.8302559636
 C          1.1048063334       -1.2952412074        0.4573328364
 N          2.3826928114       -1.6620113051        0.6118771236
 C          3.3217731990       -0.7965943921        0.2750403013
 C          4.7096790825       -1.1708133210        0.4309408906
 C          5.0250196742       -2.4507481433        0.8955774026
 C          6.3350543510       -2.8384804203        1.0524384768
 C          7.3529988711       -1.9438339846        0.7422314506
 C          7.0555682987       -0.6788854816        0.2840597636
 C          5.7323744696       -0.2537556862        0.1169206559
 C          5.3917008363        1.0790850488       -0.3617870336
 C          6.3612796361        2.0462184162       -0.6519711755
 C          6.0141391711        3.2996293675       -1.1068256659
 C          4.6785332455        3.6370690774       -1.2941063879
 C          3.7029610008        2.7095013092       -1.0134753349
 C          4.0413577510        1.4366498985       -0.5456431916
 C          2.9884300814        0.4956413697       -0.2329411421
 N          1.7319945283        0.8595702866       -0.4088655225
 C          0.7712247365       -0.0143827425       -0.0761221976
 C         -0.5827484936        0.3385124517       -0.2440630945
 C         -3.4695716134        0.8280019123        0.8026118147
 C         -2.6434812172        1.5679126095        1.6539512032
 C         -3.1477943377        2.5930261501        2.4257343394
 C         -4.4959389763        2.8961934346        2.3745434461
 C         -5.3226194905        2.1423263659        1.5640374978
 C         -4.8410694731        1.1044235951        0.7767345244
 H         -7.5314765747       -0.9955345135        0.3756308424
 H         -6.2663802813       -1.0489428675        1.6040827611
 H         -7.3489309216        0.3400874470        1.5101204663
 H         -7.3032536325        0.6742015938       -1.5930021830
 H         -5.8722742290        1.7011902894       -1.6828199755
 H         -7.1038509101        2.0015359807       -0.4563274195
 H         -6.9421176216       -1.4838648649       -1.7293095229
 H         -5.8931438808       -3.1733692583       -3.1433650568
 H         -3.4216818103       -3.3977230799       -3.1541117664
 H         -2.0662453401       -1.9822121165       -1.7030237329
 H         -2.0382045251       -2.4588950262        0.9743406185
 H          0.3348253616       -3.1376134181        1.2419762983
 H          4.2091287645       -3.1185107282        1.1234640771
 H          6.5734663985       -3.8286036626        1.4111454244
 H          8.3852147660       -2.2402479185        0.8596159220
 H          7.8719945392       -0.0143978137        0.0504921526
 H          7.4075069534        1.8227918960       -0.5174884922
 H          6.7874145176        4.0237707423       -1.3183566269
 H          4.4123846579        4.6199914996       -1.6529993420
 H          2.6561700708        2.9364420235       -1.1405988303
 H         -0.8175353213        1.3046192455       -0.6638786891
 H         -1.5929190856        1.3339211752        1.7206396971
 H         -2.4836784713        3.1507427457        3.0690147847
 H         -4.9029399248        3.7000819985        2.9686415032
 H         -6.3777787404        2.3696868137        1.5523698655
  63
  -96.0925346905000       1.237240676056754E-002 !
 C         -5.7463985443       -1.7385158580        0.6631042838
 C         -5.7684730952       -0.3010500761        0.0970352754
 C         -7.2262423625        0.1010953247       -0.1295584292
 C         -4.9558303499       -0.3192274564       -1.1844158695
 C         -5.5348666800       -0.4441085511       -2.4369010893
 C         -4.7703350066       -0.6525990452       -3.5720593558
 C         -3.3991981888       -0.7773687330       -3.4545780575
 C         -2.7946373788       -0.6201606644       -2.2233065601
 C         -3.5550994457       -0.3450342412       -1.0879399473
 N         -2.9594682281       -0.1128161245        0.1493619474
 C         -1.5867553928       -0.3570892775        0.3795167382
 C         -1.2611130765       -1.3118963800        1.3738111904
 C          0.0353828753       -1.6170794825        1.6591696131
 C          1.0803455504       -0.9736524079        0.9597373789
 N          2.3548944746       -1.2773668150        1.2331364395
 C          3.3011582741       -0.6416733209        0.5666686967
 C          4.6849936659       -0.9587296335        0.8404164834
 C          4.9866972338       -1.9307336323        1.7984158921
 C          6.2920951340       -2.2600992450        2.0782280518
 C          7.3187859156       -1.6159096626        1.3972605729
 C          7.0348151207       -0.6544936350        0.4520025785
 C          5.7166209312       -0.2965586620        0.1458815513
 C          5.3893867034        0.7171909518       -0.8476249178
 C          6.3699962690        1.4145764414       -1.5629111650
 C          6.0363143740        2.3691509133       -2.4987640420
 C          4.7032621101        2.6664597555       -2.7581600889
 C          3.7171899138        1.9985850943       -2.0706568274
 C          4.0420950759        1.0281507030       -1.1187481811
 C          2.9794326787        0.3450498171       -0.4142088668
 N          1.7260389370        0.6470180816       -0.6965955370
 C          0.7574539338        0.0028582340       -0.0292667057
 C         -0.5931492497        0.3035041893       -0.2975769644
 C         -3.6692605278        0.5701316280        1.1333762222
 C         -2.9846364090        1.2828158359        2.1176876440
 C         -3.6764040845        2.0104850061        3.0645465746
 C         -5.0575494296        2.0577418456        3.0227785608
 C         -5.7394908345        1.3523386833        2.0457647975
 C         -5.0691128413        0.5898478848        1.1027888108
 H         -6.2176019667       -2.4237326331       -0.0385588980
 H         -4.7247919583       -2.0707318817        0.8317676746
 H         -6.2829214437       -1.7761236399        1.6090589677
 H         -7.7800782979        0.0543003014        0.8042016842
 H         -7.7080692179       -0.5897235370       -0.8160493861
 H         -7.2929928970        1.1092185600       -0.5324829019
 H         -6.6060752115       -0.3966653553       -2.5440658714
 H         -5.2492494002       -0.7472269471       -4.5347430810
 H         -2.7920555503       -0.9890540151       -4.3220930076
 H         -1.7242154048       -0.7240416660       -2.1460181361
 H         -2.0707425914       -1.7946494430        1.9017423850
 H          0.2965231674       -2.3462625559        2.4100228548
 H          4.1639267087       -2.4099718543        2.3051105322
 H          6.5202012594       -3.0118184535        2.8189351549
 H          8.3474379290       -1.8692783262        1.6087892716
 H          7.8581396903       -0.1777218169       -0.0553191169
 H          7.4147005728        1.2123347645       -1.3889388880
 H          6.8180973903        2.8888574680       -3.0333440753
 H          4.4473534173        3.4151532962       -3.4928349634
 H          2.6724453641        2.2028642325       -2.2445224883
 H         -0.8147016664        1.0695751600       -1.0245415420
 H         -1.9051629772        1.2727397215        2.1333108096
 H         -3.1326249161        2.5513922611        3.8245498152
 H         -5.6065616892        2.6351349536        3.7511272071
 H         -6.8162255814        1.3980703626        2.0390361053
  63
  -96.0924628007000       1.146610527894180E-002 !
 C         -7.0221401102        0.9082368412       -0.5314419372
 C         -5.5018166834        0.8602877299       -0.3767686445
 C         -4.9225089829        2.2072612433       -0.8630510848
 C         -4.8646861248       -0.2315815650       -1.2119037148
 C         -5.4772545767       -0.8001485812       -2.3171623314
 C         -4.8147764405       -1.7096868138       -3.1240148254
 C         -3.5120884675       -2.0652603207       -2.8275984034
 C         -2.8900095970       -1.5353759773       -1.7150309757
 C         -3.5563173584       -0.6224154546       -0.8986024244
 N         -2.9449568282       -0.1325923190        0.2528554111
 C         -1.5768316334       -0.4349331464        0.4656239277
 C         -1.2085597891       -1.4942690241        1.3306359267
 C          0.1030498970       -1.7923558515        1.5510059224
 C          1.1144896505       -1.0484487984        0.9042289245
 N          2.4027241415       -1.3232176188        1.1431734182
 C          3.3167405770       -0.6196476054        0.5010019073
 C          4.7143539733       -0.8766380236        0.7671488741
 C          5.0633125267       -1.8342679786        1.7235101171
 C          6.3831809446       -2.0898618191        2.0126122512
 C          7.3767910489       -1.3831518017        1.3446688789
 C          7.0460836988       -0.4393618138        0.3968008037
 C          5.7121658296       -0.1602386109        0.0771083730
 C          5.3356669689        0.8277696921       -0.9248561455
 C          6.2809381278        1.5346393430       -1.6773123442
 C          5.9008440677        2.4668580514       -2.6181142672
 C          4.5550549133        2.7320908941       -2.8442038413
 C          3.6027617402        2.0507606381       -2.1229400381
 C          3.9748277884        1.1000278473       -1.1684821184
 C          2.9469504531        0.3881953730       -0.4410636885
 N          1.6805399513        0.6812876670       -0.6683930217
 C          0.7448252546       -0.0103073831       -0.0025934427
 C         -0.6191079506        0.2861065928       -0.1977504786
 C         -3.7355027443        0.3039999256        1.3118695065
 C         -3.2261328895        0.3844687101        2.6073371847
 C         -4.0422458199        0.7417657074        3.6622887420
 C         -5.3772904762        1.0203582686        3.4388226603
 C         -5.8688899745        1.0105850010        2.1441154596
 C         -5.0629041712        0.6873250259        1.0648535858
 H         -7.2908792640        1.0872951057       -1.5689835806
 H         -7.4763642065       -0.0236731041       -0.2021120903
 H         -7.4355529393        1.7297372066        0.0473451176
 H         -3.8391720255        2.2152140450       -0.7704437087
 H         -5.3246449182        3.0240901615       -0.2672323388
 H         -5.1811320068        2.3699966059       -1.9074076425
 H         -6.4885493321       -0.5302529906       -2.5739643687
 H         -5.3135802342       -2.1288530662       -3.9846640037
 H         -2.9797078969       -2.7659358301       -3.4533186993
 H         -1.8814705893       -1.8360042887       -1.4732568726
 H         -1.9920421140       -2.0703541228        1.8013120650
 H          0.3998336104       -2.5950286907        2.2079831905
 H          4.2651414653       -2.3587259476        2.2248487211
 H          6.6477772730       -2.8293537413        2.7534431782
 H          8.4163521349       -1.5731292293        1.5689888011
 H          7.8443408595        0.0906112401       -0.0976506573
 H          7.3340485445        1.3537788709       -1.5331277546
 H          6.6559885105        2.9932614272       -3.1835755987
 H          4.2629056998        3.4640116956       -3.5822315938
 H          2.5492716995        2.2259488637       -2.2741798370
 H         -0.8865376739        1.0773519977       -0.8808669902
 H         -2.1842491678        0.1734314463        2.7939650902
 H         -3.6308548245        0.7937498202        4.6593641244
 H         -6.0286743808        1.2760152512        4.2607959420
 H         -6.9013460814        1.2768515264        1.9876609803
  63
  -96.0922852410000       9.502002422194870E-003 !
 C         -5.9161245669       -1.3782706719        1.0258770158
 C         -5.7828885607       -0.0954782940        0.1754144123
 C         -7.1872192087        0.4343631080       -0.1157302103
 C         -5.0270702866       -0.4723082633       -1.0841220683
 C         -5.6493028867       -0.7649425886       -2.2865116503
 C         -4.9372329147       -1.2505963353       -3.3707142936
 C         -3.5767472283       -1.4651141235       -3.2556139549
 C         -2.9271111543       -1.1512069628       -2.0784323185
 C         -3.6370891957       -0.6341219897       -0.9961497608
 N         -2.9780489985       -0.2618156641        0.1700776688
 C         -1.5968583626       -0.5639389861        0.3137458291
 C         -1.2529370199       -1.7304845321        1.0319784424
 C          0.0532459906       -2.0680841040        1.2341993527
 C          1.0792100783       -1.2458299801        0.7212763235
 N          2.3625728538       -1.5580814160        0.9476047297
 C          3.2915903921       -0.7646367342        0.4502958815
 C          4.6825268804       -1.0654250843        0.7079402308
 C          5.0069106463       -2.1717482287        1.4980199427
 C          6.3190932158       -2.4781942332        1.7727073313
 C          7.3292130549       -1.6747159031        1.2563444077
 C          7.0226202739       -0.5822717843        0.4744154481
 C          5.6971486169       -0.2453805058        0.1761180970
 C          5.3462074993        0.9032655989       -0.6485650361
 C          6.3102244843        1.7378240543       -1.2260356683
 C          5.9541993527        2.8200616384       -2.0011611101
 C          4.6147927883        3.1127256179       -2.2309599380
 C          3.6444736771        2.3103999802       -1.6775086138
 C          3.9921942770        1.2091658894       -0.8902601941
 C          2.9461029781        0.3831833898       -0.3282160923
 N          1.6863482757        0.7078959368       -0.5453611816
 C          0.7338676482       -0.0795767006       -0.0249388686
 C         -0.6246102288        0.2456806257       -0.2134828670
 C         -3.5543711562        0.6863667539        1.0089067235
 C         -2.7680128311        1.4440929713        1.8752332005
 C         -3.3390313753        2.4213746462        2.6658758492
 C         -4.6975501224        2.6638543561        2.5895195836
 C         -5.4856652759        1.8901144978        1.7538513287
 C         -4.9424945627        0.8824140253        0.9738843160
 H         -6.4834504333       -2.1308532706        0.4819884091
 H         -4.9360486421       -1.7875727229        1.2584612663
 H         -6.4269246659       -1.1561204097        1.9606078814
 H         -7.7120316684        0.6445263498        0.8122941507
 H         -7.7710742743       -0.3132576605       -0.6458454804
 H         -7.1437200316        1.3419983704       -0.7136189785
 H         -6.7133016478       -0.6296045612       -2.3925727916
 H         -5.4501327722       -1.4763056265       -4.2933845827
 H         -3.0138683265       -1.8673071262       -4.0847757920
 H         -1.8615293231       -1.3038214674       -1.9981115987
 H         -2.0503230067       -2.3456288771        1.4220680580
 H          0.3343798564       -2.9510418924        1.7864932185
 H          4.1962751468       -2.7700711995        1.8830395021
 H          6.5650195202       -3.3329814456        2.3847495114
 H          8.3628957015       -1.9060926038        1.4683823969
 H          7.8335399232        0.0178693547        0.0940983665
 H          7.3592659923        1.5420731950       -1.0721869216
 H          6.7235927162        3.4438304381       -2.4324661265
 H          4.3413503099        3.9616810210       -2.8393741481
 H          2.5954023909        2.5052920800       -1.8352730247
 H         -0.8754966571        1.1362668004       -0.7694593657
 H         -1.7043068506        1.2692847411        1.9289403647
 H         -2.7163149348        2.9980906057        3.3335398111
 H         -5.1496502624        3.4378773229        3.1910192772
 H         -6.5463642533        2.0798106994        1.7311611049
  63
  -96.0916993935000       5.111851949431204E-003 !
 C         -6.2618392743        2.0803059794       -0.0461982186
 C         -4.9405904782        1.3342644524        0.1364264330
 C         -3.8719454189        2.3554877133        0.5760795411
 C         -4.4760083673        0.6514715325       -1.1383194776
 C         -5.0124868828        0.8839917416       -2.3948849960
 C         -4.5353922086        0.2098524554       -3.5065041344
 C         -3.5307921357       -0.7316375279       -3.3719340311
 C         -2.9908371946       -0.9879859648       -2.1258182155
 C         -3.4404174970       -0.2805745641       -1.0179817120
 N         -2.9487691958       -0.5607401935        0.2739843774
 C         -1.6077764095       -0.5113887720        0.5991724617
 C         -1.1987972714       -0.6598331743        1.9550344490
 C          0.1131978483       -0.6344662474        2.3136975017
 C          1.1192177347       -0.4348458457        1.3431412245
 N          2.4088699509       -0.4483750643        1.6879625692
 C          3.3032098538       -0.2049754148        0.7437904671
 C          4.7079707316       -0.2417266543        1.0822653946
 C          5.0901406054       -0.5763933332        2.3845239072
 C          6.4183621380       -0.6337481476        2.7349641938
 C          7.3890700546       -0.3556108400        1.7791335344
 C          7.0260736588       -0.0214359303        0.4929396843
 C          5.6823451670        0.0478762169        0.1065207980
 C          5.2720865006        0.3995406648       -1.2457494180
 C          6.1897044297        0.7381692683       -2.2475909366
 C          5.7781248612        1.0604528309       -3.5220898810
 C          4.4265864559        1.0559095799       -3.8482581571
 C          3.5012632401        0.7327031444       -2.8838645217
 C          3.9050602491        0.4075814249       -1.5860382815
 C          2.9020041280        0.0895727800       -0.5925396390
 N          1.6306087214        0.0838113897       -0.9485991071
 C          0.7153854377       -0.1916761159       -0.0045092883
 C         -0.6430540390       -0.2307378506       -0.3499358935
 C         -3.9840063407       -0.6917072993        1.2204400190
 C         -4.0238016040       -1.7677165579        2.0992740085
 C         -5.0758288717       -1.8949816698        2.9865593379
 C         -6.1004938129       -0.9657228697        2.9762867809
 C         -6.0853415666        0.0784563209        2.0665543361
 C         -5.0338873329        0.2321463522        1.1770679380
 H         -6.1495296524        2.8625046731       -0.7928385598
 H         -7.0539364445        1.4030422667       -0.3578108987
 H         -6.5518595966        2.5616339932        0.8844697505
 H         -4.1686024622        2.8192708851        1.5147239762
 H         -3.7710490811        3.1309131003       -0.1805516012
 H         -2.9003746355        1.8902331086        0.7169024205
 H         -5.8106957755        1.5969541949       -2.5232986816
 H         -4.9615183866        0.4120752349       -4.4776730957
 H         -3.1760144589       -1.2778188580       -4.2327907853
 H         -2.2342529473       -1.7480044317       -2.0039276394
 H         -1.9505152657       -0.7679721638        2.7207354902
 H          0.4124246477       -0.7518779293        3.3437382473
 H          4.3096132085       -0.7889207878        3.0982608696
 H          6.7081015978       -0.8950626253        3.7419913493
 H          8.4354618378       -0.4021248737        2.0442859890
 H          7.8069407054        0.1850314275       -0.2214742254
 H          7.2461151415        0.7554487086       -2.0315724340
 H          6.5124024958        1.3189339178       -4.2713565475
 H          4.1092681968        1.3078701315       -4.8492386905
 H          2.4439008366        0.7231920580       -3.0973494107
 H         -0.8962233471       -0.0121232299       -1.3740873407
 H         -3.2407032217       -2.5106650818        2.0701581637
 H         -5.1007653567       -2.7273323221        3.6736234553
 H         -6.9244251215       -1.0607956631        3.6672603316
 H         -6.9077820315        0.7751072154        2.0631396217
