  68
       -116.83252105
 C        -10.2159660264       -1.1897658670        1.3406095733
 C         -9.5217055750       -2.2024304360        1.9972545683
 C         -8.1416068645       -2.2511572453        1.9829673233
 C         -7.4542967072       -1.2605347507        1.2938397112
 C         -8.1714154916       -0.2420450999        0.6340158778
 C         -9.5530566373       -0.1919905598        0.6479412490
 O         -7.3353340463        0.6350102997        0.0096510456
 C         -6.0757880672        0.1913275289        0.2515643909
 C         -6.0676943914       -0.9719149368        1.0430843930
 C         -4.8649464641       -1.5627909221        1.4286335278
 C         -3.6688503793       -1.0295595309        0.9959506278
 C         -3.6824861641        0.0934566671        0.1680656295
 C         -4.8834578125        0.7486225421       -0.1855133024
 C         -4.5280566578        1.9141666749       -0.9406667081
 C         -5.2781792771        2.9174863804       -1.5383836627
 C         -4.6089683702        3.9241742673       -2.2053995131
 C         -3.2185113750        3.9297912075       -2.2811268106
 C         -2.4547098534        2.9385368624       -1.6921310834
 C         -3.1197519076        1.9288846756       -1.0155951215
 N         -2.6160949685        0.8044788859       -0.3666740066
 C         -1.2930486399        0.4057718803       -0.3890125992
 C         -0.9090352755       -0.9401336261       -0.4545178218
 N          0.3562268773       -1.2978159603       -0.4518216718
 C          1.2910142620       -0.3445469771       -0.4112154682
 N          2.6128305303       -0.7479442357       -0.4100183599
 C          3.1002474585       -1.8753760466       -1.0660666189
 C          2.4216457701       -2.8684368832       -1.7537537527
 C          3.1712343367       -3.8692497167       -2.3450434082
 C          4.5613128069       -3.8886969092       -2.2618588516
 C          5.2441706307       -2.8975661206       -1.5854541265
 C          4.5082109765       -1.8850349003       -0.9855882317
 C          4.8796478892       -0.7317435858       -0.2195789133
 C          6.0794368614       -0.2022161700        0.2306764511
 O          7.3313040163       -0.6692563759       -0.0068079406
 C          8.1800589056        0.1812638749        0.6366430524
 C          9.5599771278        0.1001880955        0.6632398915
 C         10.2378385530        1.0718885409        1.3781946598
 C          9.5594967024        2.0895627424        2.0437600268
 C          8.1810102116        2.1700479662        2.0155722293
 C          7.4789018876        1.2061744268        1.3037014234
 C          6.0888302301        0.9512579457        1.0362577864
 C          4.8949921449        1.5630539176        1.4176300222
 C          3.6914107256        1.0576012082        0.9717902442
 C          3.6884435270       -0.0588552082        0.1347009764
 C          0.9063032949        1.0018947285       -0.4544958123
 N         -0.3591486108        1.3595735400       -0.4303670182
 H        -11.2952430975       -1.1836218776        1.3702199870
 H        -10.0766657014       -2.9637495221        2.5249824522
 H         -7.6056944263       -3.0381642215        2.4910201517
 H        -10.0842372918        0.5945184311        0.1362802885
 H         -4.8732023823       -2.4315248767        2.0681098856
 H         -2.7386312610       -1.4665409542        1.3224840364
 H         -6.3551849568        2.8982619394       -1.4758238591
 H         -5.1674347756        4.7194768855       -2.6759725983
 H         -2.7223838304        4.7299886249       -2.8101754456
 H         -1.3787972894        2.9529861335       -1.7465337187
 H         -1.6268870933       -1.7407188170       -0.5562843911
 H          1.3460674141       -2.8643747043       -1.8142495956
 H          2.6639456809       -4.6566204003       -2.8826686251
 H          5.1083367766       -4.6906313736       -2.7346175485
 H          6.3208504378       -2.8971636387       -1.5171525168
 H         10.0785959931       -0.6902969553        0.1448478914
 H         11.3161562058        1.0399164330        1.4201351898
 H         10.1256270825        2.8282500700        2.5913795598
 H          7.6575931962        2.9601540365        2.5317399673
 H          4.9155812999        2.4248802054        2.0659348967
 H          2.7682949388        1.5108798478        1.2953650453
 H          1.6224814200        1.8039662557       -0.5564801644
