68
 energy: -116.758879313266 gnorm: 0.000080988108 xtb: 6.7.1 (edcfbbe)
C           -9.38032048400951        3.36441436383732        0.11621394988398
C           -8.38668723461016        4.33966666339865        0.09101240424415
C           -7.04908767507261        3.99927554433623        0.04763478483697
C           -6.71157691994488        2.65147529277519        0.02930885894271
C           -7.72982199782312        1.67623148009242        0.05520351725131
C           -9.06881981300534        2.01567254447985        0.09881615002910
O           -7.21405615692977        0.41432105867375        0.03195116472255
C           -5.86528507345398        0.55945350837931       -0.00884691603646
C           -5.47859710004920        1.91499515123809       -0.01419676121747
C           -4.13089680769604        2.27972857565513       -0.05542448722777
C           -3.16021740031727        1.30199552468419       -0.08568742881267
C           -3.55078928082819       -0.03643158615097       -0.08620096938367
C           -4.90635611376903       -0.43995123005266       -0.04325881500427
C           -4.92100745736931       -1.87351167449993       -0.05746000249394
C           -5.94167118790300       -2.81259096013506       -0.05005657470251
C           -5.60240020722918       -4.15097112859332       -0.11193723178413
C           -4.27086097255606       -4.54935432793977       -0.20158663309555
C           -3.23851519738326       -3.62843724946418       -0.20737317143004
C           -3.56817033404023       -2.28406028055650       -0.11166998207462
N           -2.75189240821152       -1.16492771514558       -0.11431269054960
C           -1.37239485103620       -1.16359521299860       -0.07586589925621
C           -0.66679288430215       -2.04482276272958        0.71615972179863
N            0.66250243250615       -2.02278878527505        0.81794622178837
C            1.33375028854608       -1.07498464154989        0.09939528106950
N            2.71314898122191       -1.08485328318351        0.12961637585507
C            3.49521459743411       -2.22859321068736        0.09325469460157
C            3.11020788335356       -3.55965208134816        0.10754728766883
C            4.10773615582079       -4.51661750898530        0.06138513529230
C            5.45328914978894       -4.16233898567969       -0.00851178952286
C            5.84291986807845       -2.83614425370877       -0.02821455951874
C            4.85754454399351       -1.86113088233257        0.02156196284998
C            4.88762955502773       -0.42763692373784        0.02621344285702
C            5.88138084289421        0.53710707766243       -0.00523113376234
O            7.22168884766987        0.34376384033067       -0.08723564033216
C            7.78454283615264        1.58560933663563       -0.08177856535378
C            9.13377665612595        1.87643174518653       -0.15219122184425
C            9.49581447412810        3.21248064468613       -0.13203887483837
C            8.54116284059966        4.22249686315802       -0.04453658564889
C            7.19327941725266        3.93083723638185        0.02575888697846
C            6.80539802110549        2.59659676994608        0.00722292397405
C            5.54744718927131        1.90492045919806        0.05928372622141
C            4.21761116930130        2.31385213300276        0.17831869921672
C            3.21236584113517        1.37099956564538        0.20508323875681
C            3.54530730902171        0.01879222467300        0.10612306770213
C            0.62789678045425       -0.19378868796005       -0.69286508574429
N           -0.70151694733446       -0.21356087540283       -0.79223958522440
H          -10.41632293770706        3.66590850935939        0.14996279168990
H           -8.67170782462786        5.38106372967131        0.10588468398061
H           -6.28062826718227        4.75668889159747        0.02826454456065
H           -9.83317649786063        1.25548794259498        0.11793445171954
H           -3.85795411910088        3.32321389907690       -0.05890396433894
H           -2.11328088799840        1.55587404947627       -0.12112731267757
H           -6.97119687854802       -2.49317656618931       -0.00480868660075
H           -6.37834614432042       -4.90159228045804       -0.10649546732348
H           -4.03776577384113       -5.60107570416889       -0.27451646183094
H           -2.21376621523710       -3.95129191637576       -0.30598482685829
H           -1.18480922426154       -2.72708359304944        1.37229406371086
H            2.06852833507011       -3.83249743662018        0.16330416405904
H            3.83739730215898       -5.56187549154946        0.07570029894885
H            6.20165719430957       -4.93976235337603       -0.04798573203744
H            6.88326192968702       -2.55451353505197       -0.07894227885576
H            9.86769074295924        1.08952787344801       -0.21979881553491
H           10.54119746212312        3.47633930853316       -0.18537487944787
H            8.86515270906050        5.25244971202010       -0.03172724824800
H            6.45511067559688        4.71514414169551        0.09336663947105
H            3.98395057540554        3.36384595916762        0.25712756491387
H            2.18478239422936        1.67472520825124        0.32687640678531
H            1.14618211726976        0.48550117473570       -1.35198530741733
