  72
       -111.47232884
 N          1.5260477817        2.7976916168       -1.5912687014
 C          0.8525886132        2.1778244616       -0.8834662604
 C          0.0021477535        1.4523952726       -0.0610254639
 C         -0.8414579588        2.2100201118        0.7387620713
 N         -1.5049992983        2.8627052658        1.4262549228
 C         -0.0001033802        0.0136825264       -0.0402829609
 C          1.1986853853       -0.6920593803       -0.3906333051
 C          1.1372779250       -1.9515909680       -1.0259051692
 C          2.2890105296       -2.6168443593       -1.3868323776
 C          3.5342252637       -2.0726890246       -1.1243028310
 C          3.6217952164       -0.8289993477       -0.4784532209
 N          4.8766968563       -0.2951369076       -0.1813889426
 C          5.0845274023        1.0865687172       -0.1959818326
 C          5.9277527613        1.6771573657        0.7483914016
 C          6.1420045140        3.0404946499        0.7285102616
 C          5.5215663260        3.8334311614       -0.2251267378
 C          4.6814073126        3.2521109887       -1.1612821348
 C          4.4616257968        1.8892351241       -1.1527590404
 C          5.9310574689       -1.1439034621        0.1575760317
 C          5.7037260241       -2.2878257029        0.9263329012
 C          6.7525633706       -3.1241161624        1.2537171307
 C          8.0395275569       -2.8354965591        0.8277633988
 C          8.2718637058       -1.6999377024        0.0669317307
 C          7.2303221300       -0.8587285644       -0.2691986527
 C          2.4648875597       -0.1490456165       -0.1296285515
 C         -1.1934699460       -0.6860475051        0.3313545072
 C         -1.1222836540       -1.9434506917        0.9718830144
 C         -2.2670897911       -2.6068578713        1.3558852875
 C         -3.5166282689       -2.0627756618        1.1140644486
 C         -3.6146971847       -0.8210980636        0.4653456372
 N         -4.8769367109       -0.2896130777        0.1920432835
 C         -5.0958055632        1.0888542168        0.2280316028
 C         -5.9816798318        1.6810599346       -0.6759011969
 C         -6.2103638738        3.0413873800       -0.6313947093
 C         -5.5613516624        3.8309468626        0.3059152900
 C         -4.6775290142        3.2488902225        1.2005081031
 C         -4.4436181332        1.8888378587        1.1678776643
 C         -5.9288849202       -1.1475070949       -0.1321158345
 C         -7.2219383951       -0.8867637931        0.3273825445
 C         -8.2573145398       -1.7423563044        0.0086703041
 C         -8.0247902125       -2.8678610239       -0.7668380437
 C         -6.7439750528       -3.1318019815       -1.2259262824
 C         -5.7015588660       -2.2810454320       -0.9161698503
 C         -2.4650905759       -0.1433644989        0.0911150448
 H          0.1725963272       -2.3712972364       -1.2664169249
 H          2.2224478683       -3.5679026744       -1.8945440386
 H          4.4334266030       -2.5819115824       -1.4340417564
 H          6.3955175942        1.0613591912        1.5026862287
 H          6.7883385176        3.4878975034        1.4687549806
 H          5.6891695755        4.8993481770       -0.2344080443
 H          4.1847328718        3.8577161903       -1.9019510356
 H          3.8068704248        1.4436122061       -1.8835914539
 H          4.7036024705       -2.5022325381        1.2726765440
 H          6.5649222005       -4.0019746776        1.8535563131
 H          8.8565111660       -3.4905312079        1.0877554047
 H          9.2703612747       -1.4720383865       -0.2743804751
 H          7.4072245462        0.0179427150       -0.8745413563
 H          2.5430345804        0.7934051430        0.3895455871
 H         -0.1539120933       -2.3623754451        1.1980697774
 H         -2.1917819098       -3.5556449382        1.8665310260
 H         -4.4105015134       -2.5696306609        1.4424803109
 H         -6.4721634502        1.0690415033       -1.4186906987
 H         -6.8913890954        3.4892890684       -1.3395329688
 H         -5.7407356357        4.8946027014        0.3345631187
 H         -4.1577446148        3.8521785208        1.9270173598
 H         -3.7564495620        1.4426550067        1.8679880771
 H         -7.3985177622       -0.0186555847        0.9450589183
 H         -9.2508739686       -1.5340593115        0.3758195117
 H         -8.8368461049       -3.5345538655       -1.0122165627
 H         -6.5562727713       -4.0017374103       -1.8371121617
 H         -4.7062517570       -2.4764900473       -1.2867432332
 H         -2.5534287330        0.7965974235       -0.4308472877
