  96
       -157.12592000
 C          9.8381889616        2.9610370404        0.0838477622
 C          8.8445663315        3.3156662790       -0.8130604176
 C          7.6742148345        2.5828062260       -0.8791340454
 C          7.4835177041        1.4760464511       -0.0553922112
 C          6.2316105223        0.7069391008       -0.1200305699
 C          5.0227765377        1.3914142753       -0.0853429035
 C          3.7999238710        0.7277101412       -0.0746786148
 N          2.6329422173        1.3739189194       -0.0461235600
 C          1.4814900196        0.7193503176       -0.0165166958
 C          0.2392622739        1.4226394076        0.0235349823
 C          0.2465174620        2.8275557694       -0.0066263750
 C         -0.9187551440        3.5436153864        0.0066575978
 C         -2.1434773904        2.8606039313        0.0753471350
 N         -3.3573299446        3.5886622223        0.0813195487
 C         -3.6497886298        4.4588442475        1.1273567020
 C         -2.8144494679        4.5985283132        2.2308234249
 C         -3.1323010408        5.4792212620        3.2516006621
 C         -4.2930902777        6.2267616702        3.1953061345
 C         -5.1527283439        6.0769598718        2.1180693929
 C         -4.8417729303        5.1985450149        1.0960697588
 O         -5.7497830138        5.0798657094        0.0761994453
 C         -5.4609646712        4.1971106864       -0.9312730326
 C         -6.3935057557        4.0760142669       -1.9458287642
 C         -6.1590368018        3.2226515368       -3.0127389223
 C         -4.9788896413        2.5057400656       -3.0650037103
 C         -4.0412242748        2.6217418924       -2.0522951581
 C         -4.2721458345        3.4512913432       -0.9594114512
 C         -2.1710943375        1.4838617681        0.1249535868
 C         -0.9936452780        0.7254077423        0.0841491024
 C         -0.9937548849       -0.7139156407        0.0843558918
 C         -2.1707336795       -1.4727929122        0.1338374273
 C         -2.1428725573       -2.8495079737        0.0837575628
 N         -3.3553771094       -3.5796347242        0.0966528950
 C         -4.2709777441       -3.4535332617       -0.9450908490
 C         -4.0534051286       -2.6146376840       -2.0334366913
 C         -4.9909625538       -2.5116686529       -3.0477490707
 C         -6.1571573307       -3.2511234242       -3.0016255364
 C         -6.3783862915       -4.1126757559       -1.9386189395
 C         -5.4465359857       -4.2200679986       -0.9219172055
 O         -5.7225329902       -5.1107507058        0.0822950996
 C         -4.8173215122       -5.2134472146        1.1061781348
 C         -5.1184875566       -6.0951524833        2.1283389176
 C         -4.2603387845       -6.2304906806        3.2086881360
 C         -3.1103334073       -5.4664767963        3.2672774786
 C         -2.8026228221       -4.5817311843        2.2468351905
 C         -3.6371627529       -4.4552465690        1.1411714996
 C         -0.9181900272       -3.5317701935        0.0061140603
 C          0.2466166453       -2.8153907404       -0.0161782474
 C          0.2389164507       -1.4105127143        0.0151744460
 C          1.4808328249       -0.7069359928       -0.0269782206
 N          2.6314013704       -1.3618546446       -0.0741505715
 C          3.7987860057       -0.7162848107       -0.0946218297
 C          5.0195972910       -1.3814104381       -0.1489657716
 C          6.2295134268       -0.6985049820       -0.1693213734
 C          7.4754534522       -1.4710130235       -0.2881995891
 C          7.6999758210       -2.5754654893        0.5300835736
 C          8.8627403941       -3.3137910367        0.4120359296
 C          9.8142812897       -2.9670297063       -0.5322686415
 C          9.5940660827       -1.8783044930       -1.3600524937
 C          8.4354632970       -1.1351515652       -1.2403449040
 C          8.4853921150        1.1334316665        0.8503601753
 C          9.6518854360        1.8706561526        0.9177780778
 H         10.7527850909        3.5332839310        0.1345680714
 H          8.9835523574        4.1662616475       -1.4649097278
 H          6.9055839144        2.8539131921       -1.5887968463
 H          5.0139091791        2.4695385334       -0.0334194751
 H          1.2045360335        3.3213968643       -0.0569672497
 H         -0.9125589547        4.6220127516       -0.0406554152
 H         -1.9134972027        4.0092164621        2.2918724738
 H         -2.4637680774        5.5732513386        4.0931632030
 H         -4.5411940422        6.9156782570        3.9870626739
 H         -6.0755448842        6.6307085987        2.0525743621
 H         -7.2948835057        4.6642611423       -1.8826413941
 H         -6.8932433797        3.1307527557       -3.7970689117
 H         -4.7758035846        1.8502611182       -3.8976114233
 H         -3.1162020822        2.0710942267       -2.1145950773
 H         -3.1329387733        0.9998598273        0.1893727837
 H         -3.1321264606       -0.9893096674        0.2081542380
 H         -3.1393266263       -2.0456604419       -2.0908136932
 H         -4.7981665747       -1.8491007152       -3.8772050265
 H         -6.8901200036       -3.1711138312       -3.7884626650
 H         -7.2684666745       -4.7188069306       -1.8808584952
 H         -6.0321034308       -6.6637228528        2.0607008119
 H         -4.5006943640       -6.9219221662        4.0004181196
 H         -2.4445053159       -5.5481113009        4.1126022256
 H         -1.9105060077       -3.9786529349        2.3094305156
 H         -0.9118886281       -4.6102681070       -0.0399173887
 H          1.2044924199       -3.3088827684       -0.0730730634
 H          5.0067370289       -2.4594934200       -0.1999581602
 H          6.9641500213       -2.8405250010        1.2758606289
 H          9.0283134130       -4.1627330124        1.0598028509
 H         10.7228618225       -3.5435810852       -0.6240227056
 H         10.3292358949       -1.6081387529       -2.1040901912
 H          8.2633485769       -0.2947601793       -1.8960508250
 H          8.3408053105        0.2907087507        1.5096192318
 H         10.4205491640        1.5938326047        1.6247268132
