  96
       -157.17255754
 C          9.8595829940        2.8998446586        0.1066393328
 C          8.8732074117        3.2729774062       -0.7907019078
 C          7.6899232462        2.5607267089       -0.8573116719
 C          7.4823347944        1.4572902437       -0.0342809534
 C          6.2151007520        0.7095386867       -0.0995799214
 C          5.0279238928        1.3949807164       -0.0439018499
 C          3.7957822707        0.7136363416       -0.0401641764
 N          2.6471512412        1.4025849160        0.0041045742
 C          1.5181856069        0.7177200142        0.0244200147
 C          0.2648018933        1.4352462085        0.0546249819
 C          0.2677889091        2.8325031998       -0.0095321701
 C         -0.9060042007        3.5442879188       -0.0119075920
 C         -2.1232663385        2.8619450678        0.0789310424
 N         -3.3390557751        3.5721659696        0.0675771538
 C         -3.6112635179        4.5308378352        1.0477543324
 C         -2.7456142397        4.7779777475        2.1062642147
 C         -3.0432479601        5.7406296409        3.0587461680
 C         -4.2166068110        6.4626132933        2.9791158095
 C         -5.1107250044        6.1997480328        1.9519140321
 C         -4.8192348450        5.2395735206        1.0008780853
 O         -5.7707971592        5.0104840326        0.0387055467
 C         -5.5089491512        4.0350239999       -0.8902731911
 C         -6.4892719709        3.7970166136       -1.8358532600
 C         -6.2874681135        2.8557149618       -2.8340612220
 C         -5.0885285100        2.1752641906       -2.8905962532
 C         -4.1033650341        2.4084542755       -1.9434132824
 C         -4.3048389766        3.3175445686       -0.9113742376
 C         -2.1355302474        1.4795891426        0.1642798917
 C         -0.9551513727        0.7349419090        0.1317154465
 C         -0.9568399545       -0.7207257495        0.1392556015
 C         -2.1386751736       -1.4623296334        0.1891952627
 C         -2.1299931546       -2.8452343822        0.1153825648
 N         -3.3475372900       -3.5529176155        0.1131313920
 C         -4.3052127499       -3.3211797495       -0.8793599362
 C         -4.1102904709       -2.4104385138       -1.9110322726
 C         -5.0872765130       -2.2022521547       -2.8724564225
 C         -6.2710568926       -2.9095728736       -2.8304846035
 C         -6.4660759486       -3.8510825044       -1.8310723464
 C         -5.4942200332       -4.0638000203       -0.8708692313
 O         -5.7485484879       -5.0404118224        0.0592780054
 C         -4.8082634995       -5.2415744785        1.0386009884
 C         -5.0945763550       -6.1985517990        1.9943193104
 C         -4.2105036968       -6.4334734458        3.0369525803
 C         -3.0527002797       -5.6878360952        3.1267042039
 C         -2.7599124609       -4.7286656187        2.1692003975
 C         -3.6152807299       -4.5088106561        1.0965149475
 C         -0.9152304200       -3.5315713479        0.0233103205
 C          0.2600577157       -2.8225534432        0.0074067032
 C          0.2606752578       -1.4246520013        0.0568831700
 C          1.5157610942       -0.7106672520        0.0126940888
 N          2.6417175667       -1.3986647535       -0.0416324259
 C          3.7926826159       -0.7129881878       -0.0751036058
 C          5.0205615044       -1.3975858544       -0.1538652222
 C          6.2104688698       -0.7150966274       -0.1807465865
 C          7.4687342322       -1.4649886843       -0.3348803480
 C          7.7332952399       -2.5680170730        0.4720450456
 C          8.9085760973       -3.2809310438        0.3223366704
 C          9.8292548035       -2.9089262177       -0.6426926371
 C          9.5666250213       -1.8225676281       -1.4608373022
 C          8.3963980175       -1.1034981459       -1.3086821236
 C          8.4764622884        1.0944170069        0.8709848499
 C          9.6549457307        1.8128345750        0.9404016414
 H         10.7837607383        3.4560135457        0.1581460616
 H          9.0263142867        4.1217266044       -1.4412936409
 H          6.9248254219        2.8452398218       -1.5656150603
 H          5.0127607796        2.4722989204        0.0239342644
 H          1.2221476734        3.3299410828       -0.0773641040
 H         -0.9019123138        4.6207593873       -0.0928667083
 H         -1.8336705225        4.2090536933        2.1933965664
 H         -2.3474178190        5.9157305358        3.8647777548
 H         -4.4499285412        7.2170159310        3.7134707248
 H         -6.0476846465        6.7274182103        1.8731921466
 H         -7.4031739603        4.3659691919       -1.7761041007
 H         -7.0600496320        2.6726673216       -3.5635840841
 H         -4.9042037214        1.4573509920       -3.6747427186
 H         -3.1645009520        1.8835245135       -2.0176639545
 H         -3.0930197414        0.9918048554        0.2510209723
 H         -3.0942011718       -0.9719035270        0.2815537656
 H         -3.1825980370       -1.8648378230       -1.9746815917
 H         -4.9081593428       -1.4826037058       -3.6561978965
 H         -7.0368420286       -2.7470961809       -3.5720638773
 H         -7.3677457577       -4.4401869594       -1.7821047458
 H         -6.0190851085       -6.7464362497        1.9068723282
 H         -4.4398695885       -7.1852078475        3.7752707558
 H         -2.3660712842       -5.8413511310        3.9448865939
 H         -1.8602950322       -4.1411500460        2.2621315613
 H         -0.9145625435       -4.6090203784       -0.0435707492
 H          1.2127263326       -3.3227304823       -0.0632037344
 H          4.9980583010       -2.4748729759       -0.2204146772
 H          7.0200728504       -2.8516771307        1.2329202207
 H          9.1075291117       -4.1287026175        0.9619058628
 H         10.7479810370       -3.4645776634       -0.7578784585
 H         10.2775448208       -1.5330925201       -2.2205234687
 H          8.1907202674       -0.2639165909       -1.9561413894
 H          8.3167002380        0.2544723593        1.5308516597
 H         10.4174510410        1.5229021239        1.6483278060
