96
 energy: -157.189656896282 gnorm: 0.000034173385 xtb: 6.7.1 (edcfbbe)
C            9.81274460286196        2.97784768846756        0.00323111911613
C            8.81825456553035        3.31104116050181       -0.90144258742268
C            7.65196243676601        2.57002332446589       -0.95627228835269
C            7.46636336538453        1.47612066579328       -0.11373034310301
C            6.21529065959481        0.70173151268805       -0.16352572889723
C            5.00628889750366        1.38511240831275       -0.11298285945895
C            3.78341018151006        0.71979806013484       -0.08960341425409
N            2.61800054455218        1.37535523076467       -0.04120584079990
C            1.46709269751420        0.71173335822266       -0.00268914007937
C            0.22525810749650        1.41679503870546        0.05395798619797
C            0.23394293244601        2.82229598446242        0.03746248028995
C           -0.93038847690508        3.53993899775219        0.05770844637269
C           -2.15607439825051        2.85747239004306        0.11546368144908
N           -3.36799622603522        3.59273928451631        0.11508771996788
C           -3.66933476097573        4.44599000826722        1.17190651228214
C           -2.87426445700733        4.52189688476040        2.31190726052913
C           -3.20062013169038        5.38497624352485        3.34455211221663
C           -4.32943980343726        6.18005565675590        3.26367572499999
C           -5.14783183808314        6.09767709057072        2.14769269745442
C           -4.82828197068413        5.23590389897884        1.11314477137906
O           -5.69308759734739        5.18628002774021        0.04972022069647
C           -5.39651464866045        4.31926151418844       -0.97131955422976
C           -6.28617101653877        4.26876907998210       -2.03039532626958
C           -6.04118505510756        3.43262772117680       -3.10843047510493
C           -4.89442502203888        2.66002718173727       -3.12610508908271
C           -3.99939430300618        2.70683565893076       -2.07035971911685
C           -4.24065521012217        3.52173111632788       -0.96777079867119
C           -2.18619250942240        1.48035028746655        0.15628823261234
C           -1.00846383532543        0.72059205380304        0.11374720412130
C           -1.00880996254625       -0.71998557962047        0.10665493516499
C           -2.18585050788482       -1.47986854640510        0.16428199225560
C           -2.15744080953039       -2.85644055320899        0.10596391275706
N           -3.36783884725583       -3.59317615271468        0.13191226755096
C           -4.27952059130219       -3.50230873964756       -0.91692297815504
C           -4.08291936175707       -2.66125851760850       -2.00869628523282
C           -5.01699888530825       -2.59426678296567       -3.02895467025928
C           -6.15944149193923       -3.37232215913790       -2.98645074460360
C           -6.36028415543006       -4.23470241752593       -1.92007497177190
C           -5.43120714283649       -4.30564455617445       -0.89661983459708
O           -5.68565890549711       -5.19878458266649        0.11316554037307
C           -4.78660750762831       -5.26265766132313        1.14690495627940
C           -5.06765621861534       -6.14554236723784        2.17483306517275
C           -4.21453239310502       -6.24184056843253        3.26331278231071
C           -3.08975529829014       -5.43925873304662        3.32383749156033
C           -2.80139489887839       -4.55584563564853        2.29708498191405
C           -3.63125934596884       -4.46623247693530        1.18310764691359
C           -0.93357001653648       -3.53800428114249        0.00991028834472
C            0.23075616409233       -2.82079881689267       -0.01970649051480
C            0.22360360672261       -1.41586090700972        0.02236855509323
C            1.46596083810323       -0.71107239481543       -0.02553876071815
N            2.61543765144024       -1.37502459557955       -0.08982631723492
C            3.78213393651224       -0.72032366606270       -0.11768420607210
C            5.00286054666494       -1.38646814814795       -0.18500828436262
C            6.21339206238639       -0.70423837480394       -0.21316884319194
C            7.45975451837400       -1.47820211016682       -0.33457181754214
C            7.68834851709488       -2.57755782286386        0.49040455128623
C            8.85068350875934       -3.31733062997474        0.37246500821011
C            9.79894146026789       -2.97708281781287       -0.57806749418638
C            9.57508903554548       -1.89417843787250       -1.41286036217245
C            8.41622004728907       -1.15039893858590       -1.29353650059692
C            8.46922245129625        1.15516460734396        0.79888224329812
C            9.63190028418369        1.90042493397116        0.85542213691474
H           10.72374654979193        3.55690546297130        0.04573061277345
H            8.95230543740766        4.15117562773984       -1.56804261373389
H            6.88144080196552        2.82419734245542       -1.67085332735923
H            4.99673403578947        2.46376935886938       -0.05805291240039
H            1.19309693401826        3.31499998301128       -0.00951251222504
H           -0.92109498682150        4.61878467965078        0.02267950659486
H           -1.99758021120670        3.89847626847928        2.38820396064816
H           -2.56539029886120        5.42870596383751        4.21569511840456
H           -4.58305651676703        6.85623515444099        4.06457231576041
H           -6.04326310362035        6.69244258560755        2.06016588105266
H           -7.16209507048816        4.89687178419809       -1.99181209865052
H           -6.74080712080432        3.39714700300916       -3.92828834321556
H           -4.68428510052087        2.01636514738324       -3.96614181944044
H           -3.10016564909429        2.11280407532891       -2.10411935639570
H           -3.14813191378296        0.99610177446101        0.21225533286901
H           -3.14543934347568       -0.99592685844630        0.25301307070319
H           -3.18791417151435       -2.06242943619117       -2.06233495807028
H           -4.84128466064592       -1.92965693412195       -3.86051261245181
H           -6.88941342195129       -3.32077452821728       -3.77854402794009
H           -7.23155632514168       -4.86787467569159       -1.86307808429562
H           -5.96123417555917       -6.74529117437096        2.10397573774704
H           -4.43827877433758       -6.93425214402739        4.05925160291308
H           -2.42790652924650       -5.49300291578322        4.17435289089847
H           -1.92717361583054       -3.92728332866209        2.35799802291568
H           -0.92561373882133       -4.61615290652732       -0.04258804711236
H            1.18859401042787       -3.31318009462097       -0.09072380560162
H            4.98836818739936       -2.46510158500781       -0.23845849367967
H            6.95521262016022       -2.83696613382783        1.24147439176536
H            9.01823723993888       -4.16191749688364        1.02573782889803
H           10.70700017555518       -3.55500715744078       -0.66975537036940
H           10.30676053774673       -1.62829533076249       -2.16239857321621
H            8.24110803909139       -0.31412673030691       -1.95464850686405
H            8.32728599501014        0.32305608431833        1.47313175954501
H           10.40042931554918        1.64013782564753        1.56917456917360
