96
 energy: -157.189666397054 gnorm: 0.000074916370 xtb: 6.7.1 (edcfbbe)
C            9.81143675947026        2.98652689569843        0.02688778776493
C            8.81821866976176        3.31496892374502       -0.88091360510447
C            7.65284394570060        2.57244988903769       -0.93484916914147
C            7.46674837156636        1.48186244163029       -0.08810312772470
C            6.21676569121735        0.70573946450576       -0.13769255354745
C            5.00677396731434        1.38791709812525       -0.09510135324305
C            3.78458987269067        0.72133455172038       -0.07295450347694
N            2.61831545672427        1.37584355280079       -0.03284436575030
C            1.46797001599026        0.71122908467970        0.00445633732490
C            0.22537030264550        1.41540545554705        0.05407299585457
C            0.23305319824686        2.82086772808806        0.03404048957419
C           -0.93179479765688        3.53768021905716        0.05109640611259
C           -2.15714657022479        2.85459101625610        0.11007854822490
N           -3.36917595833622        3.58934603070811        0.11055647864309
C           -3.66615221934682        4.44811507626207        1.16434803282080
C           -2.86685225511248        4.52954189672260        2.30103400874943
C           -3.18853493298803        5.39854200257760        3.33017607771068
C           -4.31697852776425        6.19413789676640        3.24930347555322
C           -5.13990744796539        6.10591563914112        2.13712868663928
C           -4.82509993379100        5.23804789118341        1.10621394810092
O           -5.69474640384958        5.18242381708597        0.04709403184640
C           -5.40349722014131        4.30879827515273       -0.96982156632740
C           -6.29915480450170        4.25121485384558       -2.02347463051230
C           -6.05989271205804        3.40845524974873       -3.09761983366064
C           -4.91254326354133        2.63677469642798       -3.11712724089196
C           -4.01160729559499        2.69060203017374       -2.06673507460311
C           -4.24734097196269        3.51167999243288       -0.96750996288057
C           -2.18624933208477        1.47746684207714        0.15282640517817
C           -1.00797609198089        0.71846502445702        0.11193536313318
C           -1.00719774379044       -0.72213163612272        0.10654112152562
C           -2.18421136239446       -1.48268423895480        0.15417202365425
C           -2.15430021023509       -2.85935432004953        0.09950665485289
N           -3.36523292839586       -3.59580758237934        0.11150590776830
C           -4.25980281340523       -3.51006738855108       -0.95233482306559
C           -4.04295924949480       -2.67768561173701       -2.04691670318077
C           -4.96004542663303       -2.61592037119125       -3.08279484791791
C           -6.10515768038417       -3.39062671741720       -3.05320206235921
C           -6.32598063440255       -4.24429993959073       -1.98373939990139
C           -5.41403917454776       -4.30991672522030       -0.94463483126342
O           -5.68767658989856       -5.19395649598590        0.06814924725153
C           -4.80360362305176       -5.25520256647376        1.11493163273978
C           -5.10227787844418       -6.13144117012790        2.14355030522921
C           -4.26442781870550       -6.22534591049391        3.24406064551074
C           -3.13713058421849       -5.42723214323366        3.31561736510939
C           -2.83129374833900       -4.55020035954253        2.28843411323259
C           -3.64587321595108       -4.46280607612758        1.16308021973606
C           -0.92918029138165       -3.54052062672714        0.01856237306543
C            0.23485010237385       -2.82246733377079       -0.00329816047025
C            0.22631781698614       -1.41735913502502        0.03310645448113
C            1.46834912544212       -0.71169457628999       -0.01099260183342
N            2.61881932960368       -1.37473804644499       -0.06646360392985
C            3.78492624504532       -0.71895470205627       -0.09317432857701
C            5.00666178637417       -1.38396402230068       -0.15250803453791
C            6.21654197311056       -0.70049056382009       -0.17992028509912
C            7.46423742920186       -1.47364956812272       -0.29253879087908
C            7.69118124966679       -2.56775512174874        0.53982841819721
C            8.85517009897703       -3.30633051606667        0.43105720612784
C            9.80677761887913       -2.97016791534914       -0.51757754603612
C            9.58452291134220       -1.89271127492045       -1.35981504244806
C            8.42396962995880       -1.15012908158478       -1.24970424493647
C            8.46815317765555        1.16598626529116        0.82790126188260
C            9.63001959102349        1.91258562914349        0.88334882652245
H           10.72185424749309        3.56656515887861        0.06851234598912
H            8.95261498436063        4.15239360232757       -1.55084353404734
H            6.88352172199322        2.82274573195577       -1.65207653953047
H            4.99569587161030        2.46683072997395       -0.04577358112844
H            1.19194715932905        3.31412704144640       -0.01234853285246
H           -0.92315629058289        4.61644797788846        0.01361826651042
H           -1.99041163204469        3.90584759324825        2.37771888535923
H           -2.54987891267519        5.44648952255836        4.19858898950118
H           -4.56678986386896        6.87511791215108        4.04732509319114
H           -6.03534204645217        6.70070146744532        2.04979210687186
H           -7.17515152935080        4.87915237733569       -1.98374859245742
H           -6.76414033747610        3.36733841604677       -3.91325291658700
H           -4.70665416835056        1.98806469403999       -3.95431590639901
H           -3.11206265540407        2.09716460952744       -2.10235407516305
H           -3.14774468836906        0.99258058122307        0.21058436467621
H           -3.14519892375227       -0.99931030434979        0.22999078471728
H           -3.14550611670905       -2.08163971287465       -2.09037102729517
H           -4.76868558441897       -1.95838630473015       -3.91652559013705
H           -6.82179555564005       -3.34330740917907       -3.85764205879032
H           -7.19994117360715       -4.87455186473835       -1.93637571353321
H           -5.99721821864054       -6.72802509586517        2.06371607414107
H           -4.50184426933320       -6.91261830522309        4.04048570558476
H           -2.48701842647754       -5.47952138862793        4.17523814304451
H           -1.95535937448901       -3.92491572256365        2.35787071886485
H           -0.92003992171023       -4.61884705543717       -0.02987257639402
H            1.19362297640285       -3.31436095118754       -0.06442506124844
H            4.99362237157766       -2.46288076193770       -0.20042198673932
H            6.95546718162854       -2.82369672143411        1.28957510534349
H            9.02154244911724       -4.14648459064507        1.09030867038850
H           10.71620682881520       -3.54704817808124       -0.60199635726807
H           10.31876677390262       -1.63021125299571       -2.10803013629465
H            8.25036597016294       -0.31801529497398       -1.91644011894274
H            8.32578956012236        0.33675537575811        1.50559005403645
H           10.39749536141741        1.65604557141531        1.59958182204925
