  80
       -122.27320469
 C          2.0187515714        5.0686405284       -0.9945371555
 C          3.2970076147        5.0473440225       -0.1659589971
 C          3.8741571761        3.6382679212       -0.0454390852
 C          5.1777464856        3.6281606944        0.7540048833
 C          5.6901998031        2.2233357162        1.0714358398
 C          6.2746794427        1.5080883987       -0.1520568009
 O          6.4855719485        0.1286239300        0.0877215326
 C          5.4293029379       -0.7086491742        0.1312386503
 C          5.7380110243       -2.0412824121        0.4996969946
 C          4.7645299998       -2.9962548515        0.6178293775
 C          3.4341799276       -2.6471109322        0.3531947217
 C          2.1961418795       -3.3314587992        0.4253480874
 C          1.8179146992       -4.6345618853        0.7751762971
 C          0.4922273719       -4.9710930825        0.7464319529
 C         -0.5036410446       -4.0381102546        0.3611175331
 O         -1.7591206174       -4.5074860161        0.3950309707
 C         -2.8568308187       -3.6718737165        0.0612092699
 C         -3.0359804685       -3.5391433719       -1.4536654666
 C         -4.3530579923       -2.8653892428       -1.8334893985
 C         -4.4609670194       -1.4114562174       -1.3745901230
 C         -5.6749960304       -0.7253422203       -1.9989217743
 C         -5.8541798902        0.6990891839       -1.4903727553
 C         -0.1472528615       -2.7380503691       -0.0027376501
 C          1.1889000718       -2.3944306519        0.0499468608
 N          1.7827475375       -1.1864593680       -0.2495675683
 C          1.1086728317       -0.0392641279       -0.6926023292
 C          1.6084897325        0.7005054739       -1.8009148156
 C          0.8890019084        1.8212799746       -2.1624416000
 N         -0.2101554132        2.2008159184       -1.5699960300
 C         -0.7634353069        1.4903363069       -0.5409899422
 C         -1.9945506779        1.9550689782       -0.0029043944
 C         -2.4714169720        3.2534383036       -0.3589275880
 C         -3.6509163385        3.7567975247        0.1236622578
 C         -4.4318049976        2.9920381548        0.9781011852
 F         -5.5965436829        3.4850331493        1.4539489596
 C         -4.0401921359        1.6855544740        1.3316409276
 C         -4.8544534339        0.8580866389        2.1314557575
 N         -5.5110543178        0.1627169838        2.7652068426
 C         -2.8395815652        1.2045607554        0.8353621462
 F         -2.5212363156       -0.0771532162        1.1533828882
 C         -0.0455435990        0.3674655084       -0.0711292386
 C          3.1380955338       -1.3152155971       -0.0617956816
 C          4.1164282298       -0.3441161351       -0.1594157297
 H          1.6042489566        6.0729791590       -1.0298312458
 H          1.2719569432        4.4029868862       -0.5677970823
 H          2.2190976638        4.7458325009       -2.0137309739
 H          4.0401379024        5.7033239773       -0.6252524003
 H          3.0874045807        5.4340947188        0.8336044963
 H          3.1380981913        2.9982358652        0.4483761315
 H          4.0421414512        3.2425449661       -1.0498157954
 H          5.0048740778        4.1474176745        1.6989612150
 H          5.9455767329        4.1824452805        0.2098484811
 H          4.8727877954        1.6245425492        1.4796351120
 H          6.4661809318        2.2791982159        1.8370769186
 H          7.2672243786        1.9038554552       -0.3811686985
 H          5.6378163810        1.6475997022       -1.0319849944
 H          6.7724934793       -2.2685993054        0.7001340225
 H          5.0119476793       -4.0017963850        0.9192839318
 H          2.5649052922       -5.3558441870        1.0668987224
 H          0.1599503539       -5.9599833306        1.0179759176
 H         -2.7553273846       -2.6935887422        0.5396140428
 H         -3.7247411362       -4.1814210159        0.4880160791
 H         -3.0089462447       -4.5439484717       -1.8823312599
 H         -2.2025220285       -2.9763373359       -1.8793164322
 H         -5.1856856819       -3.4362109004       -1.4173291153
 H         -4.4445905577       -2.8962402863       -2.9220885363
 H         -4.5496980860       -1.3700553354       -0.2877987911
 H         -3.5568885982       -0.8671194886       -1.6605548243
 H         -6.5713706979       -1.3048868662       -1.7677720191
 H         -5.5596398307       -0.7118615448       -3.0856369904
 H         -4.9576076067        1.2889557784       -1.6736283988
 H         -6.6905758731        1.1813309707       -1.9906267617
 H         -6.0542641393        0.6961579589       -0.4215436012
 H         -0.8844315020       -2.0176517823       -0.3126628291
 H          2.4742890383        0.3787286978       -2.3523581355
 H          1.2096509640        2.4366331534       -2.9938127903
 H         -1.8593915696        3.8299314024       -1.0332127145
 H         -3.9923758316        4.7419169447       -0.1521527582
 H         -0.3705301930       -0.1327800828        0.8250007131
 H          3.8476104622        0.6615989801       -0.4336399761
