  90
       -139.57611006
 C         -1.8060194434       -7.5089000321        2.4817366386
 C         -2.4473475057       -7.6419633283        1.2609377969
 C         -2.7203951322       -6.5305923865        0.4879130804
 C         -2.3613050150       -5.2581215125        0.9332732142
 N         -2.6316148254       -4.1283950219        0.1564301136
 C         -3.8130912146       -4.0392244488       -0.5833784070
 C         -4.9971721262       -4.6006014196       -0.1036331912
 C         -6.1616149170       -4.5085960274       -0.8405528809
 C         -6.1729290202       -3.8492083481       -2.0587997551
 C         -5.0023384170       -3.2838704616       -2.5374491484
 C         -3.8305687344       -3.3794828809       -1.8131136049
 C         -1.7151203942       -3.0660898356        0.1350608545
 C         -0.3388121917       -3.3363724236        0.1094475972
 C          0.5992014909       -2.3258467216        0.0793387004
 C          0.1489356741       -1.0132879973        0.0484184772
 C         -1.2344906313       -0.7271600087        0.0960392596
 C         -2.1657617800       -1.7517806527        0.1439925927
 C         -1.3553314157        0.7034298610        0.1007061068
 C         -2.4468568729        1.5565848497        0.1209181704
 C         -2.2251441379        2.9274823292        0.0736217816
 N         -3.3080036877        3.8192873561        0.0739283403
 C         -3.2239559913        5.0149840420        0.7910898064
 C         -3.8179837008        6.1795758278        0.3030100190
 C         -3.7310134524        7.3585196209        1.0168881233
 C         -3.0454553995        7.4029800598        2.2200524728
 C         -2.4479159645        6.2517856638        2.7066621652
 C         -2.5369434534        5.0657331170        2.0047000031
 C         -4.4676716056        3.4992972506       -0.6380241677
 C         -4.3870500637        2.8170894291       -1.8525213833
 C         -5.5352117265        2.4930235370       -2.5480089697
 C         -6.7798361952        2.8486371458       -2.0545060505
 C         -6.8663104613        3.5294657703       -0.8512147884
 C         -5.7243421648        3.8494365525       -0.1432659553
 C         -0.9152044247        3.4244794310        0.0025741022
 C          0.1804319363        2.5870431672       -0.0002682666
 C         -0.0395582983        1.2180022647        0.0634254724
 N          0.8619381422        0.1706084464        0.0318055330
 C          2.2530471577        0.2884868916       -0.0254623620
 C          2.9853940197       -0.4479761771       -0.9545414800
 C          4.3589547411       -0.3336028726       -1.0041079588
 C          5.0378533861        0.5290235747       -0.1445481252
 C          6.4995766169        0.6534232180       -0.2102717082
 C          7.1049639910        1.9254248487       -0.0718251619
 C          8.4590972790        2.0808583782       -0.1315292544
 C          9.2884442180        0.9583364593       -0.3296631948
 N         10.6279635385        1.1069756171       -0.3868329054
 C         11.3399244793        0.0278893481       -0.5715178463
 C         10.7496977773       -1.2462998969       -0.7083180050
 N          9.4575677723       -1.4236082251       -0.6602305563
 C          8.6913285269       -0.3263286406       -0.4700761381
 C          7.2928617499       -0.4532913741       -0.4087737878
 C          4.2970010043        1.2675515541        0.7770847740
 C          2.9246568553        1.1443830343        0.8448708369
 C         -1.7174378127       -5.1303931526        2.1645291778
 C         -1.4411285438       -6.2486853227        2.9262241748
 H         -1.5917962306       -8.3803004552        3.0813488293
 H         -2.7299292629       -8.6209596189        0.9027125927
 H         -3.2105397541       -6.6390736223       -0.4684880833
 H         -4.9970097104       -5.1044628458        0.8518116557
 H         -7.0699372178       -4.9480430126       -0.4550961447
 H         -7.0859969375       -3.7758546548       -2.6295619009
 H         -4.9988571704       -2.7703412203       -3.4878090175
 H         -2.9185550537       -2.9449048627       -2.1951593577
 H         -0.0124856118       -4.3656026129        0.1158034162
 H          1.6527535792       -2.5593842247        0.0815768580
 H         -3.2220650144       -1.5354289618        0.1864378893
 H         -3.4514124166        1.1646934722        0.1602542304
 H         -4.3435545313        6.1515770555       -0.6403220884
 H         -4.1950116060        8.2520235088        0.6255776821
 H         -2.9774811242        8.3270820246        2.7735504965
 H         -1.9155301617        6.2747803224        3.6463241524
 H         -2.0791293839        4.1672665645        2.3922048272
 H         -3.4180272129        2.5463858749       -2.2455096341
 H         -5.4562773275        1.9658750845       -3.4875025361
 H         -7.6747848326        2.5967584884       -2.6026328687
 H         -7.8321715466        3.8058726084       -0.4544504470
 H         -5.7970517668        4.3691393713        0.8009405356
 H         -0.7691587767        4.4926230573       -0.0586241937
 H          1.1772335706        2.9935230637       -0.0764062570
 H          2.4678987973       -1.0933464694       -1.6482384847
 H          4.9138865893       -0.8958686168       -1.7402180282
 H          6.4698302354        2.7890016019        0.0615341042
 H          8.9257170637        3.0488037844       -0.0340708297
 H         12.4131709986        0.1559481917       -0.6160401266
 H         11.3551944207       -2.1299998178       -0.8606098995
 H          6.8700295831       -1.4419035504       -0.4994022446
 H          4.8052005918        1.9202231121        1.4715455733
 H          2.3648109411        1.6971992829        1.5842480164
 H         -1.4399409325       -4.1479452696        2.5176701822
 H         -0.9442012488       -6.1337647041        3.8783431857
