90
 energy: -139.634212938398 gnorm: 0.000128020082 xtb: 6.7.1 (edcfbbe)
C           -1.81160654334601       -7.52582355389492        2.48267205733629
C           -2.44189842120139       -7.65155942538421        1.25486747313814
C           -2.71306442620733       -6.53433366714030        0.48898518359641
C           -2.36316991186970       -5.26356712558274        0.94775455704576
N           -2.63143766364634       -4.12910224432449        0.17553817427229
C           -3.80949427864859       -4.04179329580362       -0.57225234141479
C           -4.99920027415408       -4.58878031755198       -0.08911727485424
C           -6.16071201357430       -4.50031908700588       -0.83183344349858
C           -6.16290703154984       -3.85849651017719       -2.05991070288636
C           -4.98661215476822       -3.30708582290037       -2.54200129999716
C           -3.81785697289873       -3.39968308907612       -1.81159518703356
C           -1.71350400477257       -3.06576375301374        0.15602845077888
C           -0.33685318244655       -3.33481283142292        0.12991415676630
C            0.60000607926237       -2.32300774797449        0.09581514621883
C            0.14868992883208       -1.01045278913448        0.05950664753681
C           -1.23526428718215       -0.72545058681432        0.10871068341203
C           -2.16523012069142       -1.75183797787126        0.16401162255085
C           -1.35767881044748        0.70540462653258        0.10303918377637
C           -2.45006013712545        1.55885632972268        0.12045852530238
C           -2.22889365830878        2.92920255674136        0.06334200491185
N           -3.31320063114620        3.82297777810286        0.06496641897736
C           -3.23055888723318        5.01020001115276        0.79793975614737
C           -3.81215002714537        6.18459468948740        0.31776944845667
C           -3.72520048042125        7.35468062551453        1.04685255020368
C           -3.05148759547206        7.38040370795589        2.25768043171557
C           -2.46555610211981        6.21945922193142        2.73618462020205
C           -2.55517182112991        5.04223964992670        2.01889772514506
C           -4.46955133821966        3.51162718851331       -0.65682682099193
C           -4.38328341439480        2.84463573184944       -1.87979696825178
C           -5.52827733139092        2.53130685740171       -2.58614226850663
C           -6.77568659254129        2.88229915034533       -2.09529407614380
C           -6.86805748742774        3.54673053323256       -0.88280510880149
C           -5.72926457628765        3.85559316578165       -0.16420513176647
C           -0.91958333669652        3.42683418294733       -0.01580937479005
C            0.17667968922579        2.59005649062486       -0.01673628635860
C           -0.04206292922625        1.22084135969659        0.05794581684002
N            0.86073499473301        0.17422221828753        0.03249199246094
C            2.25389492047809        0.29314578433646       -0.02593951484362
C            2.98592470578983       -0.44644536844815       -0.95289481960271
C            4.36012720219971       -0.33381259382973       -1.00162566803056
C            5.03873044017360        0.53212478163313       -0.14460638971175
C            6.50102902838587        0.65545323029854       -0.21151518786005
C            7.10705424892968        1.92981313856525       -0.09168292817951
C            8.46101689583332        2.08584381444510       -0.15946902247054
C            9.29090997355617        0.96132522757905       -0.34696553910717
N           10.63069315149323        1.10965518293254       -0.41359001416769
C           11.34305012259493        0.02732552081540       -0.58635775988526
C           10.75314805149701       -1.24872752097598       -0.70008907575733
N            9.46036369139888       -1.42629120440211       -0.64320495472885
C            8.69332572902315       -0.32634303733531       -0.46605412913784
C            7.29514447454068       -0.45352246179992       -0.39746073031642
C            4.29791921521191        1.27656641767922        0.77275614964709
C            2.92517853438423        1.15245196569135        0.84147224798211
C           -1.73095834532153       -5.14324482649746        2.18606920736903
C           -1.45649743428789       -6.26726021770057        2.94094331357506
H           -1.59834805014514       -8.40168610235832        3.07704865784924
H           -2.71704992644110       -8.62901898829488        0.88541307589428
H           -3.19484523346434       -6.63713223523620       -0.47262440873461
H           -5.00540757268141       -5.07982026175366        0.87333242008772
H           -7.07389606473980       -4.92778720396463       -0.44315884667621
H           -7.07372474858122       -3.78790889729524       -2.63550985371990
H           -4.97644359072073       -2.80760071065381       -3.50014530310285
H           -2.90155530414661       -2.97602760704966       -2.19627243084536
H           -0.00911009083930       -4.36386714164926        0.13859633879389
H            1.65346999668772       -2.55622447860308        0.09676460877253
H           -3.22214474748765       -1.53698151053407        0.20902442059902
H           -3.45507845222693        1.16736346360454        0.16491709538673
H           -4.32927279230954        6.17124162243418       -0.63083304802408
H           -4.17949794811658        8.25620633721920        0.66147055452528
H           -2.98349355696134        8.29781565788679        2.82301238544832
H           -1.94157266568132        6.22804223755914        3.68120560715615
H           -2.10593334316515        4.13642129231840        2.39956182803610
H           -3.41276200568175        2.57567296697508       -2.27089098072671
H           -5.44470610392244        2.01644137920379       -3.53243262813789
H           -7.66817690587650        2.63916163875722       -2.65228932933252
H           -7.83613840930334        3.81892155555809       -0.48727769167555
H           -5.80747455768171        4.36314891359364        0.78638140441636
H           -0.77460045659075        4.49489856738075       -0.08361689785584
H            1.17248013545013        2.99736685269674       -0.09793470811432
H            2.46899646669906       -1.09390515346684       -1.64497019093081
H            4.91505918237125       -0.89907578971391       -1.73522061903946
H            6.47318836366051        2.79482570186148        0.03425028511878
H            8.92733193855814        3.05557296241875       -0.07678765524841
H           12.41633139682557        0.15551128518874       -0.63905733945173
H           11.35897958169801       -2.13440054569753       -0.84200660255625
H            6.87325511196572       -1.44376931192121       -0.47443599975787
H            4.80551936932735        1.93274831052489        1.46385596384863
H            2.36615585953895        1.70863652572178        1.57868385759442
H           -1.45949888054275       -4.16284954701645        2.55011515040547
H           -0.96893952922162       -6.15844152516272        3.89908100073543
