90
 energy: -139.577889478583 gnorm: 0.000031794559 xtb: 6.7.1 (edcfbbe)
C           -1.66552657866909       -7.58668781316644        2.38252608525407
C           -2.30641833788856       -7.69148028846262        1.15800462208669
C           -2.60573299334443       -6.55880737450936        0.42583449493636
C           -2.27001740977965       -5.29651677475686        0.91681288757738
N           -2.57407349369907       -4.14489919133564        0.18089526824199
C           -3.78078071661312       -4.06411416987179       -0.52270677975758
C           -4.94341141589359       -4.63199065041943        0.00064284905933
C           -6.13167251570294       -4.55500393935968       -0.69983250898277
C           -6.18510091514498       -3.90642254464197       -1.92354941179234
C           -5.03469593824304       -3.33628197542151       -2.44552278407344
C           -3.83961237184816       -3.41545838002944       -1.75734400852176
C           -1.67532223589185       -3.07435908680586        0.15397788195084
C           -0.29210857535235       -3.32255084444496        0.13698287832699
C            0.62790651183109       -2.29787121552540        0.09785819688701
C            0.15585363058754       -0.99081610763153        0.05862999452291
C           -1.23488640315170       -0.72607403369179        0.09903073086397
C           -2.14850628899099       -1.76380687668540        0.14846606362779
C           -1.37474174725464        0.70459079586889        0.08740639156305
C           -2.47295399043912        1.54615831984204        0.09993068044684
C           -2.26272409089112        2.92252351163485        0.05061596012332
N           -3.35138580325656        3.80024967963241        0.05646188344973
C           -3.26845015932882        5.01291979729724        0.74959976630823
C           -3.86686795314442        6.16428749635289        0.23599053807241
C           -3.78692381530404        7.35716408096512        0.92813306144609
C           -3.10628596280792        7.42553941528616        2.13364830900390
C           -2.50516063247082        6.28626469971277        2.64520176037950
C           -2.58563514655548        5.08686355035990        1.96461005111444
C           -4.52640352392992        3.46044838585687       -0.62373518657545
C           -4.46690104139025        2.77890774877666       -1.84039327809631
C           -5.62907102612384        2.44220417414839       -2.50679993617379
C           -6.86484306532515        2.78288668848188       -1.97972094595566
C           -6.92966277941400        3.46233481029299       -0.77344536172477
C           -5.77347250884137        3.79718223180658       -0.09531372120512
C           -0.95508182548817        3.43257972950436       -0.01983236414834
C            0.14658805088347        2.60569327027209       -0.02449948394001
C           -0.06143967411490        1.23274707415744        0.04400109441504
N            0.84786522991381        0.19914125579884        0.02769165413520
C            2.24557338113251        0.33457137986223       -0.02089452688774
C            2.98638822916216       -0.36193385481848       -0.97289906663851
C            4.35871840115766       -0.23631986012360       -1.01137781435954
C            5.03607770864026        0.59454190625256       -0.11328721586651
C            6.49103110517645        0.72542851526307       -0.16013197835390
C            7.11147572532221        1.94076390426398        0.13012234357327
C            8.48432132198035        2.07816546192816        0.07212637547868
C            9.30773943512737        0.99955754457614       -0.26605769735799
N           10.63567552880743        1.10809105667702       -0.31908344848873
C           11.37102003763973        0.04225543134307       -0.64475220264688
C           10.77600114730618       -1.16875446408535       -0.92847874420729
N            9.45571261539917       -1.31776309472018       -0.89141292015582
C            8.67969439179044       -0.26840823104906       -0.56619900773898
C            7.29659842308442       -0.36778392077722       -0.50732911143237
C            4.27704012067902        1.29380948637562        0.83021875609250
C            2.90528115754100        1.16488111409689        0.88211561754261
C           -1.62683344080495       -5.19621990194672        2.15117508992353
C           -1.32671473641169       -6.33537095247288        2.87281754850707
H           -1.43108798338626       -8.47424482520301        2.95065950252980
H           -2.56803184761860       -8.66334189261875        0.76574313116829
H           -3.09555527500410       -6.64301435392705       -0.53320803374350
H           -4.90775927586992       -5.12728136261098        0.95993937823410
H           -7.02439308508770       -4.99749437650464       -0.28260444233492
H           -7.11622196040169       -3.84646788878569       -2.46652140486121
H           -5.06534106423014       -2.83430242816968       -3.40150467467442
H           -2.94185676806518       -2.98258773226691       -2.17350965671926
H            0.05196736423352       -4.34580880144228        0.14854321638569
H            1.68545337034833       -2.51086696187749        0.09445739858375
H           -3.20833404610611       -1.56507761182823        0.18956915364279
H           -3.47425586870203        1.14675875626177        0.14781609458585
H           -4.38795528249002        6.11617294444725       -0.70900327827159
H           -4.25243166095679        8.24187142248976        0.51898725926310
H           -3.04456126341226        8.36015143893416        2.67042174412102
H           -1.97699015258283        6.32951283104263        3.58652309342518
H           -2.12729987277020        4.19709308432777        2.37075916348996
H           -3.50488160519455        2.52308432088256       -2.25961965184437
H           -5.56859488163905        1.91815107377694       -3.44937285091459
H           -7.77078431407872        2.52108373587654       -2.50524839972172
H           -7.88854158433207        3.72710108842599       -0.35237972866948
H           -5.82803773179608        4.31655648627384        0.85017408047724
H           -0.81854910324838        4.50148882227787       -0.08562923570354
H            1.14095063622573        3.01694677596292       -0.10185156164745
H            2.47726667540559       -0.98603295088693       -1.69260171991782
H            4.91804422487273       -0.76578612771054       -1.76792051772213
H            6.51069534534792        2.80507933557217        0.37217258559932
H            8.95618364316369        3.02628639779126        0.28291204546911
H           12.44184174987716        0.17359518521227       -0.67321393120534
H           11.36048884689794       -2.03847897631102       -1.19032488640402
H            6.85688499297924       -1.33248745605948       -0.70972071724711
H            4.77570121553155        1.92253246911638        1.55251199483038
H            2.33871759539255        1.68990297798350        1.63701636451692
H           -1.37109554777610       -4.22115838091681        2.53943704468379
H           -0.83203162414833       -6.24474185652048        3.82879702468574
