90
 energy: -139.634046614018 gnorm: 0.000035543590 xtb: 6.7.1 (edcfbbe)
C           -6.48204132189427       -2.56422350332008        2.58827315468254
C           -6.61534580096840       -3.34045249113485        1.44822240923501
C           -5.50054123372233       -3.73229824157585        0.73264099658905
C           -4.22352331481032       -3.36074087314943        1.15619255726808
N           -3.09209405551820       -3.75361556394485        0.43517746296519
C           -3.04827659671093       -5.00161013921980       -0.19392749095574
C           -2.41655213269755       -5.14982405269028       -1.42959938545834
C           -2.36435408242470       -6.38665962232672       -2.04271823406639
C           -2.94550816827367       -7.49303047996937       -1.44426708717149
C           -3.57660642087158       -7.35192183609545       -0.21856127856527
C           -3.62553980834954       -6.12124370442057        0.40695049084519
C           -1.99328846709102       -2.88402332210785        0.32891184038809
C           -0.69153652030326       -3.40061218286315        0.41403818370064
C            0.41949749979778       -2.59131796076441        0.30336787376191
C            0.22320150698007       -1.23022174455674        0.11201382847146
C           -1.08283258313472       -0.69065658903977        0.06633648442069
C           -2.19082633248132       -1.51941276714270        0.15761073031068
C           -0.93153536534510        0.73098719968203       -0.07391179078452
C           -1.84054553286313        1.77337337534472       -0.17403158599187
C           -1.35922584171510        3.06739629745233       -0.32883920734473
N           -2.24961377546129        4.14967998205174       -0.43693828445302
C           -1.95889504143591        5.34805690267665        0.22210679998097
C           -2.27164461453144        6.57635283621791       -0.36203069259667
C           -1.97887681765490        7.75573518597760        0.29501356499222
C           -1.36347493008160        7.73513965895216        1.53654967750164
C           -1.04378741481941        6.51890539676806        2.11843990852795
C           -1.34014998014569        5.33405239072666        1.47297191970064
C           -3.42102574240441        4.01573411379349       -1.18700679828806
C           -3.43376752731093        3.24416285653278       -2.35002086316412
C           -4.59600898700797        3.10733076319134       -3.08401311919777
C           -5.76113282366459        3.74019211857295       -2.68127770531293
C           -5.75433274958793        4.51043414895693       -1.52939253349410
C           -4.59969831134016        4.64488128352032       -0.78303418018289
C            0.02266035948298        3.30127851038341       -0.39220677625585
C            0.93837159904886        2.27656755830060       -0.27839805411839
C            0.45902669172950        0.98561167654675       -0.10104439015980
N            1.14684744739449       -0.20774424201610        0.00938267031771
C            2.53885622686072       -0.35606901568446        0.00478672335404
C            3.14415306053111       -1.29069770553010       -0.83248578733519
C            4.51615726911591       -1.43904286288224       -0.83090331882456
C            5.32059438599433       -0.64894334970859       -0.01021728939464
C            6.78206923929352       -0.79727218773015       -0.01983579936853
C            7.35961551147125       -2.08781659519369       -0.10138314133007
C            8.71249163549832       -2.26589928631870       -0.10903946224387
C            9.57012894652319       -1.14879204503026       -0.03925470370507
N           10.90890227030163       -1.31892760642834       -0.04783936556640
C           11.64757997119716       -0.24254121024159        0.01839402941908
C           11.08612709286196        1.04897781556350        0.09548851981274
N            9.79531152145552        1.24795696288486        0.10806913871703
C            9.00149210392364        0.15474378336091        0.04193926092110
C            7.60393195668980        0.30489737838367        0.05182825634354
C            4.70667790302904        0.28883840480713        0.81968497365306
C            3.33426642857959        0.43033149028173        0.83561980831532
C           -4.09596054752940       -2.58331089811413        2.30832749153909
C           -5.21737471057827       -2.18738884836784        3.01102627800075
H           -7.35592419589916       -2.25615215754496        3.14261659489894
H           -7.59696869940208       -3.63566623336565        1.10622452630469
H           -5.61140781178464       -4.32668461180179       -0.16274542244994
H           -1.97140222604310       -4.28728103827678       -1.90402991956954
H           -1.87430890620408       -6.48533691113627       -3.00070980698765
H           -2.90658522476071       -8.45724824652252       -1.92861400911667
H           -4.02725267460738       -8.20963645277514        0.25986297472748
H           -4.10895284159547       -6.01778983048231        1.36768094792706
H           -0.56485188174180       -4.46097662315548        0.57521935790463
H            1.41044938656885       -3.00988890985155        0.38737033149241
H           -3.18951209713023       -1.11281241888722        0.10660683302676
H           -2.90285278206135        1.58440949759711       -0.13989419927881
H           -2.74221760487881        6.59750038226004       -1.33439747874793
H           -2.22549094193753        8.69905719995925       -0.17078387297895
H           -1.13415786621359        8.65938355544952        2.04552211907107
H           -0.56766108700179        6.49170557894159        3.08810157343975
H           -1.09814220748274        4.38732635131972        1.93373521194742
H           -2.52579344492939        2.75616971217281       -2.67357261864702
H           -4.58944594253360        2.50772050608741       -3.98298714852560
H           -6.66661382798021        3.63395389528183       -3.25980569311832
H           -6.65893128055551        5.00287147601306       -1.20235137068494
H           -4.60284529360556        5.23672399331762        0.12092138997010
H            0.37020525439351        4.31357420347471       -0.53696771605940
H            1.99588311353615        2.47925104671025       -0.34751908573724
H            2.53358198647604       -1.88619650413850       -1.49443952791075
H            4.97226543051895       -2.15212591045239       -1.50113327522144
H            6.70602321035375       -2.94653641331394       -0.13663541050138
H            9.15728654243040       -3.24762835321899       -0.16396675455303
H           12.71989737904273       -0.38817445082022        0.01116980529707
H           11.71358840869111        1.92935510365946        0.14851730318842
H            7.20402488341943        1.30621352550113        0.09548986281367
H            5.31140200932301        0.89111138830919        1.48087257922107
H            2.86839804149739        1.13887183180050        1.50379221005454
H           -3.11205021927038       -2.29405330619978        2.64814458575728
H           -5.10167866366448       -1.58631803928767        3.90151539463559
