90
 energy: -139.577892722902 gnorm: 0.000038169666 xtb: 6.7.1 (edcfbbe)
C           -1.75908995251203       -7.56992768973860        2.38786210228745
C           -2.39404452694760       -7.67176926073402        1.16000446387206
C           -2.67669440052273       -6.53834631337941        0.42240572071690
C           -2.33013283860661       -5.27808456823663        0.91115106902087
N           -2.61714875987717       -4.12573089051864        0.16976322094085
C           -3.81711037882852       -4.03461397483217       -0.54400434630604
C           -4.99002273479549       -4.58862213124145       -0.02880839521896
C           -6.17144170597924       -4.50141867128729       -0.73959764871473
C           -6.20763842773062       -3.85630430635084       -1.96578264433299
C           -5.04695219711811       -3.29981456419042       -2.47966615914167
C           -3.85868719613949       -3.38910232355319       -1.78099712859838
C           -1.70773046922938       -3.06395186849442        0.14698377713303
C           -0.32700106062202       -3.32579878359748        0.13734957712688
C            0.60314950073829       -2.31016766586773        0.10283400771131
C            0.14402190307575       -0.99859267100574        0.06125836413530
C           -1.24426359079503       -0.72004604589371        0.09413454137133
C           -2.16819559624950       -1.74890760832252        0.13841991153773
C           -1.36978989638528        0.71201082705810        0.08297864941924
C           -2.45933611446046        1.56494499948695        0.09067385278953
C           -2.23443310886764        2.93909329900080        0.04548141478515
N           -3.31399404500724        3.82825967341239        0.04758112737019
C           -3.22293530542370        5.03636323914867        0.74747468517380
C           -3.80507218844789        6.19700993528339        0.23602172229411
C           -3.71656667703703        7.38527801975301        0.93502423941684
C           -3.04319127959128        7.43984181976162        2.14531156406961
C           -2.45821301613453        6.29129103630883        2.65482297104444
C           -2.54743793667167        5.09644500018494        1.96737562168118
C           -4.48578835123216        3.50527692747585       -0.64594913154106
C           -4.42157368055682        2.82886938453505       -1.86524773573254
C           -5.58053463147566        2.50977568149802       -2.54574739476369
C           -6.81765612663507        2.86294959332735       -2.03020085753478
C           -6.88711209463713        3.53689652842637       -0.82108166838747
C           -5.73429032365791        3.85415774720061       -0.12889905264689
C           -0.92139640271845        3.43597574756576       -0.01708584160948
C            0.17164932343979        2.59777638549971       -0.01781312408853
C           -0.05100845292978        1.22697996111783        0.04741085797877
N            0.84798632744674        0.18436203386839        0.03492898514447
C            2.24703754192824        0.30704325916905       -0.00846098718883
C            2.98525269695894       -0.39530715968736       -0.95818138935291
C            4.35852628585731       -0.27930089873679       -0.99346544724767
C            5.03952516799169        0.54749719868121       -0.09437890727275
C            6.49520589272049        0.67038879880364       -0.13921574911704
C            7.12157408364435        1.88230731541649        0.15274419949109
C            8.49514196356574        2.01274243093505        0.09657712296700
C            9.31341581471124        0.93019069785078       -0.24149186445430
N           10.64193286106570        1.03188915563535       -0.29267839133853
C           11.37224310264312       -0.03737981652093       -0.61834291617466
C           10.77134415121086       -1.24505761840331       -0.90396833597790
N            9.45028041489187       -1.38722351850278       -0.86880936230123
C            8.67920885403594       -0.33424579237634       -0.54357053195493
C            7.29555848022726       -0.42661740207518       -0.48647577884228
C            4.28325191660761        1.25137689624277        0.84792923888972
C            2.91053630322400        1.13207895193952        0.89661867293780
C           -1.69297736592626       -5.18077595506475        2.14892844770054
C           -1.40943058942025       -6.32073795699265        2.87595345388370
H           -1.53777453168701       -8.45808181092141        2.96031894226623
H           -2.66421323828029       -8.64200049995039        0.76949395871073
H           -3.16170158529516       -6.62041097969371       -0.53926663792986
H           -4.96763455203751       -5.08118278485834        0.93230038240352
H           -7.07227965392609       -4.93318616768288       -0.32862985756411
H           -7.13344517569279       -3.78844244179272       -2.51686367577098
H           -5.06423655555769       -2.80053779094945       -3.43740365004262
H           -2.95299796955530       -2.96675971560268       -2.19073716319575
H            0.00679801024309       -4.35243647313666        0.15083591828841
H            1.65861006339780       -2.53330409178799        0.10494242518335
H           -3.22630328310674       -1.54010097101570        0.17363964931737
H           -3.46511551680425        1.17616159905290        0.13200198276590
H           -4.32004608672555        6.15971574513678       -0.71280564922118
H           -4.16933832204095        8.27725995645119        0.52740560372948
H           -2.97462898181080        8.37094861216715        2.68732945449169
H           -1.93587861023917        6.32372557823021        3.59984127068098
H           -2.10167697530429        4.19957589261544        2.37185657674007
H           -3.45832105738407        2.56333758569850       -2.27550794978360
H           -5.51624314980820        1.98984067089702       -3.49034548505730
H           -7.72099546846341        2.61516591043380       -2.56689207455869
H           -7.84716398491773        3.81123613472312       -0.40891089350974
H           -5.79262867578822        4.36925876060873        0.81869219006729
H           -0.77371474346222        4.50358854529265       -0.07990431448552
H            1.17062584076787        2.99874430855561       -0.08954022511638
H            2.47354134488551       -1.01597683983072       -1.67901379676358
H            4.91581694769785       -0.81280683920614       -1.74866743725627
H            6.52497196393380        2.74954386127313        0.39466695679417
H            8.97158629037806        2.95824762986938        0.30880110698092
H           12.44374640873282        0.08852189838629       -0.64525854399765
H           11.35165036847399       -2.11754693899434       -1.16587506030030
H            6.85118529463060       -1.38885952711530       -0.69038328775486
H            4.78463401278998        1.87637363184040        1.57156389137853
H            2.34596873255766        1.66082444438147        1.65041361607585
H           -1.42881366905456       -4.20731654846751        2.53555162109090
H           -0.91920918718502       -6.23235017154374        3.83444423916596
