  49
        -73.20977399
 O          2.5104292450       -1.4484635165       -0.3830250905
 B          2.8574427700       -0.3836789102        0.3895381064
 O          4.0524847473        0.2036859366        0.1521141080
 C          2.0061000625        0.1570635682        1.6150291393
 C          2.6775560818        0.4497258098        2.8013886119
 C          2.0065869259        0.8974215041        3.9247815843
 C          0.6342080580        1.0724886016        3.8773449012
 C         -0.0459350190        0.8049113902        2.7038375088
 C          0.6160400184        0.3453511429        1.5686118670
 Si        -0.3778709384        0.0548814015       -0.0188543307
 C          0.6031770241        0.7114602572       -1.4999563013
 C          1.3378331865        1.8856959648       -1.3633438403
 C          2.0696160611        2.3963512027       -2.4195675401
 C          2.0790725515        1.7375035012       -3.6377681801
 C          1.3560081318        0.5663804306       -3.7891423297
 C          0.6267168754        0.0604917827       -2.7280688539
 C         -0.7684143964       -1.7985686866       -0.1919288464
 C         -1.6262784170       -2.2524412805       -1.1897383340
 C         -1.9088981150       -3.5987848363       -1.3326055769
 C         -1.3417113603       -4.5214089680       -0.4687539650
 C         -0.5031095537       -4.0871207216        0.5437930324
 C         -0.2217941133       -2.7385391339        0.6788319937
 C         -2.0394808655        0.9640352467        0.0779932900
 C         -2.2069268909        2.2305437811       -0.4719840974
 C         -3.4183080305        2.8927117739       -0.3828414822
 C         -4.4884766947        2.2957441613        0.2621649279
 C         -4.3400620594        1.0337073673        0.8132387083
 C         -3.1264100366        0.3773603693        0.7192434363
 H          1.6500412396       -1.8313530405       -0.2061858968
 H          4.5382082282       -0.1814199970       -0.5794274239
 H          3.7493039655        0.3207144331        2.8317989855
 H          2.5519464838        1.1133462385        4.8320641606
 H          0.0983800539        1.4237100594        4.7476036308
 H         -1.1146621475        0.9584579100        2.6615128836
 H          1.3439895646        2.3974762555       -0.4122720021
 H          2.6367711939        3.3073159906       -2.2930580848
 H          2.6509101264        2.1329136024       -4.4645974027
 H          1.3641294816        0.0452618487       -4.7359382765
 H          0.0758308276       -0.8598366099       -2.8521252858
 H         -2.0866255447       -1.5351666572       -1.8537063512
 H         -2.5750630762       -3.9311767446       -2.1155869191
 H         -1.5602114158       -5.5732015778       -0.5787742831
 H         -0.0701963640       -4.7998423830        1.2307670340
 H          0.4161367406       -2.4057840400        1.4858758904
 H         -1.3760166873        2.6980403563       -0.9799885774
 H         -3.5297170614        3.8757969948       -0.8172991428
 H         -5.4353739965        2.8104978925        0.3333927372
 H         -5.1723292043        0.5617584807        1.3156402211
 H         -3.0164791557       -0.6097798657        1.1454271979
