49
 energy: -73.113014439881 gnorm: 0.000064720996 xtb: 6.7.1 (edcfbbe)
O            2.92605326397722       -1.25039235370397       -0.33784627110898
B            3.12151934021612       -0.15524494559376        0.46522581116503
O            4.33019536521204        0.47339790737943        0.37908260384967
C            2.06680106675473        0.38246362648216        1.46926760319986
C            2.39361796636719        1.38011620718871        2.39758700011225
C            1.62488112457177        1.57486875304059        3.52149649425422
C            0.46362684533162        0.77597434911433        3.75392732753449
C            0.04796652916408       -0.11312952535244        2.81318864579280
C            0.71192756767474       -0.12143137511059        1.55679586619426
Si          -0.39451385260994       -0.07163270814458        0.01762135588201
C            0.63462870683018        0.57317388961143       -1.43134266723389
C            1.36954576534916        1.74641872573967       -1.29347275541958
C            2.13843081258303        2.23331284782407       -2.33565446532220
C            2.18691668813383        1.54770460369499       -3.53798659750051
C            1.46087797221543        0.37816122485995       -3.69116112877245
C            0.69281834329876       -0.10223189941876       -2.64518649952237
C           -0.89077806674144       -1.90199935828986       -0.23692519299350
C           -1.91816356164591       -2.19834826081262       -1.12719508808525
C           -2.28903302959665       -3.50825316920834       -1.37485075345830
C           -1.63910873348369       -4.54751126028684       -0.72894676680141
C           -0.62000357758753       -4.26748427749841        0.16569741866827
C           -0.24953656102587       -2.95551210661126        0.40694186587404
C           -1.98889668507992        0.93328299478038        0.16585711809221
C           -2.08736833180902        2.23602816606059       -0.32762892937219
C           -3.23516250766555        2.98352601597356       -0.14776120380889
C           -4.31632629525541        2.44863963398784        0.53691371251350
C           -4.23682270163080        1.15792106571506        1.03670937248575
C           -3.08770489261844        0.41339173795124        0.85440654651638
H            2.07748586924389       -1.68471392973742       -0.25748617189200
H            4.90764068446878        0.07720978523901       -0.27510157979983
H            3.34233857532059        1.88509830191663        2.28191801757208
H            1.96409865953364        2.24342162636318        4.29834565541846
H           -0.06912452412929        0.87291351755818        4.68820570026536
H           -0.84695621052746       -0.69960745767110        2.95625414018405
H            1.34091962123443        2.28294143446641       -0.35609583965990
H            2.70388050608768        3.14577834547072       -2.20861008819290
H            2.79020456144799        1.92297506124297       -4.35251469408662
H            1.49734147270809       -0.16249824078959       -4.62658247016439
H            0.13406016152603       -1.01872509590196       -2.77110403287830
H           -2.43414935427554       -1.39144702333579       -1.62719041554679
H           -3.08837357906346       -3.71851547889590       -2.07135028012196
H           -1.92833504875742       -5.57085890968899       -0.92027031363389
H           -0.11151968017304       -5.07228480885807        0.67730340133631
H            0.54007423531081       -2.74651030223997        1.11587846159523
H           -1.25383825062256        2.65911812276039       -0.86997796500181
H           -3.29214683477072        3.98773680135344       -0.54453388790957
H           -5.21476825947590        3.03240511564652        0.67700113189694
H           -5.07683023615651        0.73237546391191        1.56823271974694
H           -3.03982742148587       -0.59572706092003        1.23841362117934
