49
 energy: -73.112648296763 gnorm: 0.000163599872 xtb: 6.7.1 (edcfbbe)
O            2.96692642321756        1.19968397298126       -0.86914865021472
B            3.02183830798361       -0.14697889182034       -1.12012500943526
O            4.24830980366595       -0.74417906073832       -1.03849694628020
C            1.79625619170244       -1.02418502274600       -1.49007702923220
C            1.97593919412212       -2.36893046883650       -1.84180815279888
C            1.02079821528557       -3.04410991810829       -2.56701539308488
C           -0.18082613583554       -2.38714160549509       -2.96898113155727
C           -0.45018033357115       -1.13219419115697       -2.52309884547418
C            0.42282356690452       -0.56379218887553       -1.54957963306900
Si          -0.38886561106008        0.06962472216171        0.04892840511859
C           -2.27134911822734       -0.03520932325255       -0.11844458562067
C           -3.07313136709188        1.09941845077696       -0.04205794493861
C           -4.44875811793301        1.01272473526513       -0.16599398169515
C           -5.05126082198168       -0.21762308084314       -0.36938185360717
C           -4.26847001062358       -1.35852055615700       -0.44855150850026
C           -2.89428097649712       -1.26387508353475       -0.32608718093462
C            0.19040937000444       -0.82364457470961        1.60620738048058
C            1.54169647890463       -0.80199721454025        1.95863828056227
C            2.00380589463454       -1.49622774735506        3.06101895216142
C            1.12403660050769       -2.22842993368628        3.84234126850339
C           -0.22142059457400       -2.26161260777757        3.50782440527181
C           -0.67908317338474       -1.57126896416467        2.40176990730330
C            0.10916410600334        1.91489662427200        0.13198500735960
C            0.06713924074853        2.72366775683901       -1.00311344133233
C            0.36539826093927        4.07341942214103       -0.92578402317893
C            0.71830009806723        4.63549151085084        0.29002025325188
C            0.76613542794572        3.84314805310694        1.42545187293289
C            0.46384421459860        2.49481490881778        1.34534540583728
H            2.10258721261609        1.61048331413986       -0.93773345706074
H            4.94620258603630       -0.13060230523870       -0.80327595250419
H            2.94694917269782       -2.80961274412747       -1.66625618481462
H            1.23519708365657       -4.02811473829511       -2.95582292455395
H           -0.85754041524613       -2.88408077826496       -3.64839623138809
H           -1.36820961770393       -0.62989226475090       -2.78889248825528
H           -2.61235352022433        2.06366149321785        0.11767282109573
H           -5.05329365492589        1.90690349636501       -0.10420745369829
H           -6.12528343679306       -0.28770837159159       -0.46707764359079
H           -4.73206234875342       -2.32202605008764       -0.60836941498891
H           -2.28795777835318       -2.15583162564923       -0.39741837452633
H            2.23656250434210       -0.23349711629314        1.35891105564547
H            3.05459166326527       -1.46592066745265        3.31386665568873
H            1.48330982347712       -2.76803653831346        4.70692263071276
H           -0.91419953057864       -2.82767145700894        4.11488815099681
H           -1.73027918373993       -1.59881233738055        2.15314960213108
H           -0.20908107525090        2.29061887257044       -1.95423578772548
H            0.32220197732134        4.68659322256562       -1.81449595140556
H            0.95486829574562        5.68774118135895        0.35301043746706
H            1.03870921020112        4.27696771671026        2.37690849984977
H            0.49839228897732        1.88313155413482        2.23465374486543
