49
 energy: -73.236537626133 gnorm: 0.000066560209 xtb: 6.7.1 (edcfbbe)
O            2.15364670457972        0.74627605333586        2.03314219643265
B            2.83526413552580        0.23855912892635        0.97130263635906
O            3.97244450095584        0.87263659270463        0.60079716258056
C            2.44260526157257       -1.08202141716044        0.18545123832242
C            3.43140569325035       -2.04081014814697       -0.03263799597319
C            3.16223528872001       -3.22298633803653       -0.69903088922799
C            1.88489804339633       -3.46294584959046       -1.17631421277132
C            0.89567794216205       -2.51629519042211       -0.98210107802873
C            1.14901204492898       -1.32716665645847       -0.30293266093142
Si          -0.24262752959987       -0.05217233188034       -0.10579568358323
C           -1.02047684691096       -0.22209103763189        1.62226276860404
C           -2.15765980721415        0.50782999599520        1.96194468749355
C           -2.73374498752481        0.39567903640837        3.21468329835833
C           -2.18581804133217       -0.46093287646131        4.15594773905882
C           -1.06642593925602       -1.20908029755500        3.83196584324056
C           -0.49273275758592       -1.08927575867053        2.57740971956861
C            0.47420887381246        1.67818431989256       -0.39717736434469
C            0.13894956182494        2.77167677512160        0.39443176198416
C            0.69002319656474        4.01909078806930        0.16056004762928
C            1.58903342996564        4.19686268052382       -0.87785896326273
C            1.93497846237997        3.11912090888256       -1.67634846864279
C            1.38354630676197        1.87402344662012       -1.43357007679253
C           -1.61810579036382       -0.38876960797881       -1.37077618527307
C           -1.67410170669821        0.28488659482724       -2.58724879625717
C           -2.67165050449164        0.01676567046448       -3.50820399344465
C           -3.63784096764417       -0.93488200792758       -3.22682925247603
C           -3.60084150154415       -1.61224790555959       -2.01890767761776
C           -2.60077979172666       -1.33862943721884       -1.10319100157142
H            1.35650543880572        0.28901235151767        2.30518178108760
H            4.16711143914652        1.65278968871663        1.12436354160523
H            4.43001644782994       -1.84557922206165        0.33216161232921
H            3.94698979361050       -3.95080943876438       -0.85026606619243
H            1.66276309363999       -4.38048687853985       -1.70308924160823
H           -0.09711483910369       -2.69854858997094       -1.36879510405344
H           -2.60027911948442        1.16482186055428        1.22690361546919
H           -3.61398585276732        0.97375053560823        3.45819876746152
H           -2.63420433428649       -0.55081951380465        5.13485603495572
H           -0.64136121221508       -1.88911220740140        4.55648922785988
H            0.36864591938006       -1.69459489643227        2.32677026981845
H           -0.55492569861492        2.64248412442310        1.21203068984543
H            0.42003497445045        4.85518756258359        0.79053026250369
H            2.02147309868923        5.17022571270159       -1.06188503326303
H            2.64012171714081        3.24870862253932       -2.48544761316838
H            1.66973891985793        1.03524186855863       -2.05255725673171
H           -0.92716093921867        1.03266692703773       -2.81219085258151
H           -2.69735621461126        0.55142397822187       -4.44746884569097
H           -4.41769208836914       -1.14642373684209       -3.94461127671847
H           -4.35376418150350       -2.35414588655085       -1.79172233626686
H           -2.58068163685443       -1.86707999313569       -0.16042497610764
