88
 energy: -135.695014918658 gnorm: 0.000060950066 xtb: 6.7.1 (edcfbbe)
O            6.48138880044734       -4.55783662005729       -0.56157695952354
C            6.38302455829366       -3.36203517577396       -0.32099406704425
C            7.58364020406052       -2.52046398093726       -0.09703996662389
C            8.69447846872403       -3.08406312258825        0.52889675350122
C            9.83613936516195       -2.33296004749206        0.73471849199917
C            9.88890473840975       -1.01937842490455        0.29471371118947
C            8.79848503160644       -0.46035128203973       -0.35335856569988
C            7.64726647047171       -1.20213930187412       -0.54653966782501
C            5.06453067090712       -2.69725669870910       -0.24392043338391
C            4.83309979829298       -1.59946249084713        0.58679658498424
C            3.57994477456395       -1.02809474082684        0.65581695516329
C            2.53051060526035       -1.53042357600966       -0.11591697864451
N            1.26943740564696       -0.93787685184338       -0.06104427688472
C            1.00549793490070        0.41905625247001       -0.14316313749310
C            1.87192219485578        1.48616572395468       -0.33705631646805
C            1.33621168752095        2.75409504187517       -0.42530432565755
C           -0.04409122390655        2.98215437059859       -0.32239382019508
N           -0.53977040784355        4.29270555472750       -0.41143766976600
C           -1.71704898513329        4.54425150991961       -1.12354698637118
C           -2.62192649184542        5.51035968821435       -0.68157383740871
C           -3.77984628385084        5.75908482846016       -1.39290872838997
C           -4.06317806744695        5.04576440597505       -2.54662265709274
C           -3.17271345017482        4.07915180421834       -2.98585172834346
C           -2.00777297889054        3.82978541756648       -2.28650114146388
C            0.14786623543345        5.33776030623828        0.21368743898224
C            0.21911936958817        6.59840722381027       -0.38069297578910
C            0.89913460284681        7.62632740764488        0.24329276072476
C            1.52816884051987        7.41650974319073        1.46016966579544
C            1.46770780734546        6.16486493817453        2.05152395780224
C            0.78157700624261        5.13338304159241        1.44013946965255
C           -0.91442959251564        1.91173295702379       -0.15219563415847
C           -0.39022600353677        0.63065032723560       -0.07747046645080
C           -0.99487450334307       -0.66628312869138        0.05843101207010
C           -2.31121093521153       -1.08495853436075        0.17569295143594
C           -2.57049709338283       -2.44222820756686        0.32629423397315
N           -3.89008320171023       -2.90490701029719        0.44859539013622
C           -4.81860711475635       -2.17919572081917        1.20160542324267
C           -4.42532211172513       -1.51472896037139        2.36407375818734
C           -5.34622517994653       -0.79705160261151        3.10260530895874
C           -6.67187197410291       -0.73419442973488        2.70403489752808
C           -7.06888311657828       -1.39308817886076        1.55145796084147
C           -6.15340610340227       -2.10532373007117        0.80101409783028
C           -4.26556980727704       -4.09502011699042       -0.18341095872084
C           -3.74350612307647       -4.42545267568784       -1.43471599941459
C           -4.10465624316861       -5.60768088671775       -2.05140218198276
C           -4.99573956474940       -6.47520262152601       -1.44031323251889
C           -5.52071940445646       -6.15071319446739       -0.19955577990715
C           -5.15877246226311       -4.97498788584609        0.42903706076271
C           -1.50870407507249       -3.35809185114433        0.37257658152844
C           -0.19589790528773       -2.95658544944494        0.24067672938304
C            0.06182762653804       -1.60446713643787        0.06012336105577
C            2.75573230137633       -2.63480724978305       -0.94008716433974
C            4.00349812535892       -3.21634596041605       -0.98838935014050
H            8.63801763075534       -4.11236762613452        0.85630811934897
H           10.68762319899064       -2.77322885384108        1.23217491565671
H           10.78294614464814       -0.43381874023896        0.45030815820693
H            8.84630888768138        0.55792475625959       -0.71016312333067
H            6.80514899876799       -0.77133912896353       -1.06780282522145
H            5.63023173642815       -1.21633827560586        1.20587301683154
H            3.39778600719800       -0.20126657444924        1.32510705882012
H            2.93525481883456        1.33750126662755       -0.44105474023001
H            1.99037439451781        3.59853532938641       -0.58401996996207
H           -2.41090411492372        6.06166423054546        0.22332605371013
H           -4.47065882230324        6.51032745048201       -1.03789075402519
H           -4.97033828173932        5.24142953609233       -3.09860156040802
H           -3.38212565143463        3.51988736583867       -3.88639982979768
H           -1.31233909506734        3.08131485329711       -2.63769562823094
H           -0.26014835293933        6.76359157227601       -1.33479342558990
H            0.94605041932274        8.59662393673494       -0.22987750570268
H            2.06120911096313        8.22173885798887        1.94316188157216
H            1.95075512862486        5.99230400062099        3.00256282987664
H            0.72695149125867        4.16209640135890        1.90986110826637
H           -1.97932899630619        2.07633853107316       -0.08979789879021
H           -3.12060169868672       -0.37111831190702        0.15896435467067
H           -3.39485947215476       -1.56920367202472        2.68407860498417
H           -5.02739372476686       -0.29027584971110        4.00211976062698
H           -7.38956025779825       -0.17609422012686        3.28650100769531
H           -8.09878868279194       -1.34473202742012        1.22807136498861
H           -6.46512798722389       -2.60880472316409       -0.10269419677140
H           -3.05516934309989       -3.74733628133896       -1.91802498806129
H           -3.69367794251032       -5.84896735718412       -3.02113186844670
H           -5.27841379689149       -7.39688311839236       -1.92652451219368
H           -6.21159030565072       -6.82333844461036        0.28806087595956
H           -5.56192500556903       -4.73135077867154        1.40133015054886
H           -1.73259426497452       -4.40417536552416        0.52032651263298
H            0.60215175784087       -3.68019050910134        0.30086219403600
H            1.95297381725779       -3.01752925466063       -1.55130649675432
H            4.18819803403211       -4.07147367264756       -1.62220919394235
