  88
       -135.55973366
 O          6.8340221362       -3.5960455032        0.6439963812
 C          6.5777990383       -2.4747466382        0.1465534569
 C          7.6657378787       -1.6475112820       -0.4088066758
 C          7.6715387712       -0.2542652677       -0.2913407630
 C          8.7282767364        0.4829239816       -0.7867623930
 C          9.7998403567       -0.1484728682       -1.4010515716
 C          9.8170690864       -1.5321471445       -1.4952942560
 C          8.7679541478       -2.2758603453       -0.9960609836
 C          5.2225035824       -1.9696393793        0.0959877957
 C          4.2455367621       -2.5670110306        0.9259358583
 C          2.9468996092       -2.1393324578        0.9185758389
 C          2.5478372195       -1.1015407122        0.0603143622
 N          1.2280574747       -0.6505186307        0.0579177998
 C          0.8272169018        0.6651722664        0.0874457457
 C          1.5822085435        1.8267441584        0.1541513345
 C          0.9233495761        3.0398880834        0.1932310872
 C         -0.4827100359        3.1121002727        0.1702866756
 N         -1.1138560644        4.3539797844        0.1934717145
 C         -2.3109855051        4.5439093718       -0.5045214107
 C         -3.3199206188        5.3476905181        0.0279685404
 C         -4.4989777980        5.5333903753       -0.6670984407
 C         -4.6939056648        4.9210175426       -1.8947826833
 C         -3.6954341605        4.1210076087       -2.4275584993
 C         -2.5106030935        3.9331678444       -1.7436723965
 C         -0.5591825615        5.4142401679        0.9195906316
 C         -0.6122860669        6.7158044652        0.4202450532
 C         -0.0645217884        7.7583014586        1.1419662816
 C          0.5454544823        7.5212641886        2.3635789187
 C          0.6008833376        6.2299244164        2.8634105277
 C          0.0516353635        5.1810686283        2.1523935973
 C         -1.2465976087        1.9459847851        0.1341556195
 C         -0.5968782328        0.7221030148        0.1018333654
 C         -1.0558109668       -0.6299109309        0.0839670087
 C         -2.3160736225       -1.2070622242        0.0856153199
 C         -2.4188140415       -2.5963753438        0.0166469800
 N         -3.6716484364       -3.2034960493        0.0145068390
 C         -3.8491751546       -4.4511257511        0.6250623119
 C         -3.1942070192       -4.7509771544        1.8201137010
 C         -3.3729042214       -5.9828472123        2.4183289330
 C         -4.2063724946       -6.9280690947        1.8417849433
 C         -4.8614438547       -6.6334353818        0.6565987174
 C         -4.6857874325       -5.4063417760        0.0474223591
 C         -4.7637058650       -2.5722022884       -0.5902278395
 C         -6.0350502017       -2.6672159096       -0.0222234832
 C         -7.1125459793       -2.0467986008       -0.6233908664
 C         -6.9418213865       -1.3197895974       -1.7907218744
 C         -5.6813159750       -1.2213278539       -2.3581890659
 C         -4.5982709934       -1.8436849528       -1.7691395423
 C         -1.2586309953       -3.3915165832       -0.0647116248
 C          0.0021575061       -2.8294489327       -0.0511140984
 C          0.1094216962       -1.4497269600        0.0461350529
 C          3.4937376819       -0.5376560594       -0.8101564458
 C          4.7943299556       -0.9674902712       -0.8018584892
 H          6.8600902976        0.2427038386        0.2190525016
 H          8.7228821938        1.5592487159       -0.6860578113
 H         10.6218230858        0.4337608823       -1.7905253480
 H         10.6559854369       -2.0312676105       -1.9588490967
 H          8.7741812998       -3.3535908871       -1.0570016414
 H          4.5680043254       -3.3543834273        1.5894025188
 H          2.2261507907       -2.5648608904        1.6013046784
 H          2.6597193159        1.7920626736        0.1743243784
 H          1.4927662473        3.9554651583        0.2266189403
 H         -3.1739754253        5.8147479845        0.9911240036
 H         -5.2737301628        6.1542341343       -0.2428026315
 H         -5.6172571221        5.0673710602       -2.4336506103
 H         -3.8355893947        3.6470768895       -3.3875831088
 H         -1.7261297858        3.3219546215       -2.1654355885
 H         -1.0756092749        6.8983052440       -0.5385525242
 H         -0.1068990766        8.7608255212        0.7435235538
 H          0.9748081657        8.3379954125        2.9229673209
 H          1.0682755594        6.0380649281        3.8176056606
 H          0.0828479631        4.1758734441        2.5466020569
 H         -2.3243858464        1.9970029979        0.1524739280
 H         -3.2017671270       -0.5943062040        0.1525288174
 H         -2.5551312544       -4.0083537602        2.2747772777
 H         -2.8640619904       -6.2027128943        3.3448272421
 H         -4.3443644078       -7.8887138069        2.3133614457
 H         -5.5076232707       -7.3668921683        0.1982539072
 H         -5.1861009688       -5.1809804423       -0.8832397647
 H         -6.1663327153       -3.2221078301        0.8953656995
 H         -8.0902675565       -2.1248554297       -0.1721281132
 H         -7.7859205612       -0.8348205141       -2.2561242392
 H         -5.5409736297       -0.6636576137       -3.2720585523
 H         -3.6188843497       -1.7807597909       -2.2204342471
 H         -1.3654932939       -4.4604839171       -0.1622715542
 H          0.8782713038       -3.4513938018       -0.1443928449
 H          3.1718367686        0.2076996970       -1.5232423212
 H          5.4926222340       -0.5614331554       -1.5166965890
