88
 energy: -135.695145270104 gnorm: 0.000040006253 xtb: 6.7.1 (edcfbbe)
O            6.68311325728754       -3.83815475284794       -1.12229821746732
C            6.49585208684353       -2.68799656719647       -0.74885367919137
C            7.63020375078999       -1.78749971643530       -0.42861039860789
C            8.78596213006239       -2.33066553138425        0.13048057008945
C            9.86775259898608       -1.52143535655179        0.42176217400160
C            9.81518868566625       -0.16592150244625        0.13599034274026
C            8.68014363338943        0.37680848606048       -0.44589626936978
C            7.58854770038445       -0.42545652069869       -0.72418538555300
C            5.13120783935804       -2.13804141920898       -0.60069286791077
C            4.82285557787898       -1.16364725986998        0.35045810387172
C            3.53032782397147       -0.70291352869342        0.48422719401882
C            2.51575213109727       -1.19346672098984       -0.34014203819137
N            1.21283105821310       -0.71539234674305       -0.20943882230565
C            0.84413633131815        0.61599390115956       -0.11080460804273
C            1.61889613583914        1.76516047905563       -0.19157920412789
C            0.98429861965480        2.98736715599192       -0.11168621199308
C           -0.40524322577205        3.08997424054880        0.05231691996255
N           -1.00225188991060        4.35731340262748        0.13806145270962
C           -2.23126160507665        4.59325526072388       -0.48679971933137
C           -3.18230003221892        5.42345635791954        0.10795439991856
C           -4.39376030067554        5.65474775597528       -0.51456488675283
C           -4.68488698807238        5.05695215627778       -1.73026675399670
C           -3.74719577413341        4.22645865380624       -2.32282655723446
C           -2.52878712275377        3.99780758369141       -1.71337177252084
C           -0.36970690071581        5.37346247356567        0.86193628439099
C           -0.41738859927691        6.69605140376645        0.41937548273410
C            0.21026806688057        7.69485115081812        1.13832813638272
C            0.90189366679643        7.39547224424460        2.30134197234785
C            0.95776546348948        6.08318400734588        2.74265173859265
C            0.32632260344685        5.07868060746552        2.03497729288364
C           -1.18402916784043        1.94003079458554        0.10990309827874
C           -0.56041389440601        0.70615536648297        0.01311420432591
C           -1.05998946039262       -0.64106429444419       -0.00435309751360
C           -2.33449775308365       -1.17251537387666        0.10860808022494
C           -2.49205539700428       -2.55310720494353        0.06453588903246
N           -3.77231219426265       -3.12097121540251        0.14929133335208
C           -4.85254734548660       -2.49279603390334       -0.48060832985066
C           -6.11345606725741       -2.48018601705430        0.11697337547277
C           -7.17637343470543       -1.85821843905192       -0.50925298492655
C           -7.00218267017663       -1.23015172518703       -1.73202406442060
C           -5.75101897188368       -1.23399068040549       -2.32762720102706
C           -4.68475703769217       -1.86260081169213       -1.71434100828120
C           -3.96980981376046       -4.29569515973749        0.88271833688607
C           -4.87799523503775       -5.26034277638445        0.44433028453479
C           -5.07131980592357       -6.41824187003865        1.17251345115732
C           -4.35912152245531       -6.64134102421719        2.34018335701630
C           -3.45119025281948       -5.69017550974500        2.77713113574568
C           -3.25797205231344       -4.52471988524521        2.06088565610984
C           -1.36672021176047       -3.38153386835516       -0.06023955236022
C           -0.09025389702978       -2.86569462546151       -0.15182857389294
C            0.06344280025461       -1.48613298998816       -0.14972258607289
C            2.81919625558448       -2.17145244443219       -1.28938362881343
C            4.10754377363906       -2.64626527153687       -1.40269861201833
H            8.81214930752105       -3.39063823495637        0.33908623891671
H           10.75435788189534       -1.94803268613847        0.86694266280458
H           10.66223602670670        0.46579028021858        0.35931663180424
H            8.64551899902801        1.42977929885744       -0.68361470740384
H            6.71216377481778       -0.00458142218123       -1.19451432202421
H            5.59287197572760       -0.79301894814238        1.01012029728590
H            3.29083968507812        0.02427365658160        1.24492348833868
H            2.68650867257307        1.71627310999071       -0.33882900202065
H            1.56587432657066        3.89461194574982       -0.18186563669008
H           -2.96498192351796        5.88268339757010        1.06151764648598
H           -5.12002126337786        6.29952876927636       -0.04089587024173
H           -5.63467428408461        5.23639669019188       -2.21145330966415
H           -3.96234554035534        3.75874068281816       -3.27282587500408
H           -1.79701347282248        3.35774757205020       -2.18436153318105
H           -0.94745304999976        6.93202901482154       -0.49203623141989
H            0.16603320194572        8.71418590956705        0.78253290526116
H            1.39310241658699        8.17884207907249        2.85894523899372
H            1.49007860129238        5.84033953209833        3.65107036457977
H            0.36389438510581        4.05786506820255        2.38670657990174
H           -2.25580213889261        2.00871404102867        0.21701624182984
H           -3.19143246678614       -0.52741353149433        0.22892193196122
H           -6.25161253819742       -2.95798929298247        1.07609269483559
H           -8.14623201390058       -1.85607387803571       -0.03286901067185
H           -7.83413025702940       -0.74113768007176       -2.21632457788228
H           -5.60541663740589       -0.75135814092707       -3.28329932735556
H           -3.71362363717365       -1.87126243887955       -2.18742020319218
H           -5.42790125591595       -5.09466011890792       -0.47083950193650
H           -5.77700106451420       -7.15666216417639        0.81990637324784
H           -4.51043655620283       -7.54913042281042        2.90482861292143
H           -2.89426947611837       -5.85271439055146        3.68873654099925
H           -2.55626320383370       -3.78097256961708        2.40971604887425
H           -1.50904889099525       -4.45174478494274       -0.08059401102316
H            0.75825099381165       -3.52847252712900       -0.22128437893693
H            2.04382113970755       -2.53958517353201       -1.94347559960488
H            4.35230970782977       -3.40493902586994       -2.13184091205547
