88
 energy: -135.622830642636 gnorm: 0.000045630753 xtb: 6.7.1 (edcfbbe)
O            6.83956061635334       -3.59393193522908        0.66906932231857
C            6.58589618022354       -2.46055382942607        0.15871883516086
C            7.67535244862827       -1.67367812058075       -0.43484021227699
C            7.72522648194331       -0.27616490619471       -0.35359537242002
C            8.79018465341825        0.42030519049900       -0.88747186769495
C            9.83369453778011       -0.25271684705564       -1.50773470110682
C            9.81245904356520       -1.63936363371498       -1.56654335681507
C            8.75466001477047       -2.34096108325457       -1.02836147675206
C            5.23852059381723       -1.94489380901900        0.14158603695247
C            4.27252415898845       -2.52360009621849        1.00007836284087
C            2.97271253483403       -2.09780358781618        1.00840463167610
C            2.55725508866225       -1.07718693813684        0.13835213440265
N            1.23072301879360       -0.63365236952378        0.14019328879354
C            0.82311645542574        0.67909954382757        0.16702609098631
C            1.57281456096843        1.84722214222162        0.23977992514359
C            0.90814826747111        3.05435413823220        0.26356902955427
C           -0.49898373911800        3.12305646845590        0.21842456806951
N           -1.13573322504405        4.35844111677171        0.21909911427484
C           -2.33526979416684        4.53251321353024       -0.48293478846972
C           -3.34646880280579        5.34096411710637        0.03870075517570
C           -4.52530744925079        5.51486609191868       -0.66046958453025
C           -4.71739571549103        4.88535958436114       -1.88056363496301
C           -3.71606332897533        4.08093622535326       -2.40233430743420
C           -2.53100191440716        3.90526589957167       -1.71480330098769
C           -0.58469124316249        5.44142476762654        0.91719851306201
C           -0.63195766454841        6.72647388470101        0.37544669520029
C           -0.09206263240109        7.79169236242218        1.07005927138670
C            0.50302628833970        7.59359817771973        2.30635920420770
C            0.55140133384540        6.31860226496698        2.84849481419496
C            0.01059004487008        5.24713836041962        2.16454022826544
C           -1.25584993196632        1.94885516538149        0.17994335989955
C           -0.59946146550581        0.73204301108956        0.16222299743239
C           -1.05291616322129       -0.62770900893778        0.13633033192681
C           -2.30810042677796       -1.20727511011430        0.11387515226385
C           -2.40635806021498       -2.59977505325508        0.04541186189294
N           -3.65560160910545       -3.20677206699990        0.01396460554149
C           -3.85224412670179       -4.45925755148077        0.60964920305227
C           -3.22743621586774       -4.77245452792409        1.81788871524411
C           -3.42934737850334       -6.00758461476795        2.40255593803029
C           -4.25618788959540       -6.94261069771292        1.79925146872530
C           -4.88195780876505       -6.63408681697652        0.60125363320763
C           -4.68302686484864       -5.40374805289028        0.00534774440229
C           -4.73392690750620       -2.56798406667796       -0.61305561091327
C           -6.01310607039598       -2.63925053060486       -0.05961843887051
C           -7.07355386830285       -2.00853541815707       -0.68140043423838
C           -6.87682132209702       -1.29812152717931       -1.85544039535530
C           -5.60804694907610       -1.22608328854279       -2.40951389028135
C           -4.54165481488742       -1.85724171996515       -1.79904565005034
C           -1.23882341317738       -3.38821923697245       -0.00964630287545
C            0.01684726165733       -2.82176912864728        0.02091452094226
C            0.11704805202036       -1.43840000833693        0.11423635240339
C            3.48928248494267       -0.52416505526950       -0.75354058772789
C            4.79064083108509       -0.95186904276856       -0.75994627078115
H            6.93782183521948        0.25548173137288        0.16173248998231
H            8.81510054525112        1.49884706575329       -0.81220798287204
H           10.66230533015809        0.29757668721387       -1.92907138847859
H           10.62828875653008       -2.17364628492366       -2.03382205254125
H            8.73022566202543       -3.42176662142961       -1.06053159394594
H            4.60714723809675       -3.30318213604074        1.66982316566466
H            2.26606456462124       -2.51881488623896        1.70916115574576
H            2.65038606967794        1.81577126148287        0.27198800565303
H            1.47457431957315        3.97185157552089        0.29860536847880
H           -3.20361001980807        5.82163497083424        0.99517406131416
H           -5.30230051003485        6.13972071532702       -0.24583323462160
H           -5.64072183809806        5.02277041671111       -2.42247525892072
H           -3.85409306607230        3.59462016566247       -3.35655610753251
H           -1.74436323591361        3.29298289500301       -2.13015445117636
H           -1.08350959251195        6.87955316979917       -0.59357117713165
H           -0.12871480306885        8.78142313746320        0.63968251515141
H            0.92663725380853        8.42779818590564        2.84468928324073
H            1.00673163193828        6.15801784363621        3.81450113363392
H            0.03672847853556        4.25614343766587        2.59295849904054
H           -2.33366989563012        1.99368853270199        0.18545085075110
H           -3.19703251988643       -0.59803277394220        0.16128800655334
H           -2.59513745227952       -4.03873819795429        2.29541422818912
H           -2.94387601161436       -6.23867866017474        3.33915795213472
H           -4.41210735710544       -7.90598712738141        2.26046363881875
H           -5.52269581753312       -7.35991910190940        0.12306886564539
H           -5.16053834873180       -5.16903492693238       -0.93445184555891
H           -6.16477523053280       -3.18205614023684        0.86155000826820
H           -8.05829486893118       -2.06628052637639       -0.24205908011783
H           -7.70774769432329       -0.80521048732251       -2.33678208400751
H           -5.44879619896067       -0.68259919880883       -3.32888211359822
H           -3.55653011160038       -1.81541904478306       -2.23981642204817
H           -1.33702880678508       -4.45856000991959       -0.10353843239363
H            0.89844181759818       -3.43898093290180       -0.05465495752128
H            3.15943417002129        0.21336447313783       -1.47139676583171
H            5.47716507274005       -0.55416141333431       -1.49238866641344
