  44
        -76.49267478
 O          4.4724663453        1.0950616777        1.9195519357
 S          3.9973010337       -0.0918384438        1.2556685867
 O          4.4757135839       -1.3538644812        1.7597112429
 C          4.1907289667        0.0251633215       -0.5187256751
 C          5.3562300218        0.0670278312       -1.2399990753
 C          5.2801230858        0.1602892455       -2.6253765340
 C          4.0373845824        0.2108396330       -3.2505248895
 C          2.8668522081        0.1678783049       -2.5211982440
 C          2.9257851987        0.0716739228       -1.1261260044
 C          1.8245715286        0.0105530786       -0.2008985279
 C          0.4564307407        0.0339756461       -0.4973653355
 C         -0.4552382084       -0.0369508295        0.5369487926
 N         -1.8568460749       -0.0124142956        0.2356442139
 C         -2.4538318154        1.2174031129        0.1528350862
 C         -1.7076978305        2.3881085972        0.3839591924
 C         -2.2734040300        3.6324316511        0.2947699053
 C         -3.6377114142        3.7780255627       -0.0395065547
 C         -4.3959359176        2.6615432949       -0.2674584863
 C         -3.8397210906        1.3811829048       -0.1752360765
 S         -4.8928529424        0.0432157934       -0.4813022508
 C         -3.8676955411       -1.3337380184       -0.2670088739
 C         -4.4508998751       -2.5932269716       -0.4431488265
 C         -3.7127535389       -3.7376201836       -0.3062599473
 C         -2.3402943598       -3.6427749033        0.0122352919
 C         -1.7488559191       -2.4192346609        0.1846510057
 C         -2.4763337105       -1.2211354626        0.0590451691
 C         -0.0593906657       -0.1316947494        1.8761143228
 C          1.3002771493       -0.1548956464        2.1751986214
 C          2.2073941235       -0.0854586727        1.1525361607
 H          6.3062896393        0.0278547493       -0.7307745093
 H          6.1825556089        0.1940747861       -3.2152177108
 H          3.9898635241        0.2850292064       -4.3272887036
 H          1.9122314522        0.2093704406       -3.0240078042
 H          0.1087502157        0.1066979669       -1.5164947471
 H         -0.6643045617        2.2964136372        0.6397468492
 H         -1.6727774075        4.5077829927        0.4807255124
 H         -4.0739580841        4.7607234158       -0.1113851771
 H         -5.4421671368        2.7417012083       -0.5218095244
 H         -5.5013085499       -2.6345578328       -0.6892503838
 H         -4.1700999714       -4.7039990824       -0.4409512630
 H         -1.7535884174       -4.5404678825        0.1194756834
 H         -0.6991962775       -2.3663148559        0.4254124970
 H         -0.8045959397       -0.1848425924        2.6532218354
 H          1.6402941785       -0.2267868921        3.1960410954
  44
        -76.49168323
 O          4.4576240183       -2.1962572561       -0.7279308851
 S          3.9144705807       -0.9417721880       -1.1830653693
 O          4.2588924634       -0.5317071586       -2.5206069423
 C          4.2009713669        0.3636957889        0.0057170339
 C          5.3928044143        0.9529564235        0.3423784632
 C          5.3897954566        1.9691045022        1.2916575939
 C          4.1925136110        2.3635960043        1.8827454873
 C          2.9952079564        1.7691003326        1.5405245484
 C          2.9797124530        0.7507825952        0.5802826937
 C          1.8348058721        0.0533170815        0.0562304451
 C          0.4903225991        0.2511421142        0.3873535963
 C         -0.4838612174       -0.4569400544       -0.2904608706
 N         -1.8594536946       -0.1964584647        0.0008557165
 C         -2.3525936011        1.0215977445       -0.3945525553
 C         -1.5633783046        1.9022469298       -1.1598059139
 C         -1.9997730185        3.1551874602       -1.4981739824
 C         -3.2737947201        3.6066354221       -1.0897879871
 C         -4.0913475801        2.7585518057       -0.3926730385
 C         -3.6719156507        1.4677546074       -0.0545483406
 S         -4.8203027625        0.4574173768        0.7533254240
 C         -3.9599612049       -1.0281809277        0.9703795520
 C         -4.6619447140       -2.0819657175        1.5663489639
 C         -4.0385603446       -3.2619099035        1.8699878469
 C         -2.6576261921       -3.3987560170        1.6140914423
 C         -1.9531692539       -2.3795849459        1.0277552505
 C         -2.5727392124       -1.1761244741        0.6439090358
 C         -0.1644384800       -1.3876342623       -1.2886048510
 C          1.1734867933       -1.6061166874       -1.6035559983
 C          2.1390865687       -0.8961180404       -0.9417279018
 H          6.3064661404        0.6288068802       -0.1308581034
 H          6.3132448700        2.4533485760        1.5681825259
 H          4.2019072930        3.1533637340        2.6199385437
 H          2.0763336015        2.0916835549        2.0064394514
 H          0.2049740485        0.9626908457        1.1472611508
 H         -0.5896139131        1.5774961799       -1.4888400086
 H         -1.3657479467        3.8012858290       -2.0831928136
 H         -3.6022136326        4.6009059681       -1.3438337254
 H         -5.0837983287        3.0620387297       -0.0951038397
 H         -5.7090748016       -1.9332172722        1.7831784073
 H         -4.5885666885       -4.0728847030        2.3184877556
 H         -2.1520571666       -4.3109791692        1.8858096345
 H         -0.8970040947       -2.5015173275        0.8493601661
 H         -0.9525777257       -1.9111718177       -1.8054436570
 H          1.4518305977       -2.3142057029       -2.3678280123
