  44
  -76.4926747800000       0.425888525170213      !
 O          4.4724663453        1.0950616777        1.9195519357
 S          3.9973010337       -0.0918384438        1.2556685867
 O          4.4757135839       -1.3538644812        1.7597112429
 C          4.1907289667        0.0251633215       -0.5187256751
 C          5.3562300218        0.0670278312       -1.2399990753
 C          5.2801230858        0.1602892455       -2.6253765340
 C          4.0373845824        0.2108396330       -3.2505248895
 C          2.8668522081        0.1678783049       -2.5211982440
 C          2.9257851987        0.0716739228       -1.1261260044
 C          1.8245715286        0.0105530786       -0.2008985279
 C          0.4564307407        0.0339756461       -0.4973653355
 C         -0.4552382084       -0.0369508295        0.5369487926
 N         -1.8568460749       -0.0124142956        0.2356442139
 C         -2.4538318154        1.2174031129        0.1528350862
 C         -1.7076978305        2.3881085972        0.3839591924
 C         -2.2734040300        3.6324316511        0.2947699053
 C         -3.6377114142        3.7780255627       -0.0395065547
 C         -4.3959359176        2.6615432949       -0.2674584863
 C         -3.8397210906        1.3811829048       -0.1752360765
 S         -4.8928529424        0.0432157934       -0.4813022508
 C         -3.8676955411       -1.3337380184       -0.2670088739
 C         -4.4508998751       -2.5932269716       -0.4431488265
 C         -3.7127535389       -3.7376201836       -0.3062599473
 C         -2.3402943598       -3.6427749033        0.0122352919
 C         -1.7488559191       -2.4192346609        0.1846510057
 C         -2.4763337105       -1.2211354626        0.0590451691
 C         -0.0593906657       -0.1316947494        1.8761143228
 C          1.3002771493       -0.1548956464        2.1751986214
 C          2.2073941235       -0.0854586727        1.1525361607
 H          6.3062896393        0.0278547493       -0.7307745093
 H          6.1825556089        0.1940747861       -3.2152177108
 H          3.9898635241        0.2850292064       -4.3272887036
 H          1.9122314522        0.2093704406       -3.0240078042
 H          0.1087502157        0.1066979669       -1.5164947471
 H         -0.6643045617        2.2964136372        0.6397468492
 H         -1.6727774075        4.5077829927        0.4807255124
 H         -4.0739580841        4.7607234158       -0.1113851771
 H         -5.4421671368        2.7417012083       -0.5218095244
 H         -5.5013085499       -2.6345578328       -0.6892503838
 H         -4.1700999714       -4.7039990824       -0.4409512630
 H         -1.7535884174       -4.5404678825        0.1194756834
 H         -0.6991962775       -2.3663148559        0.4254124970
 H         -0.8045959397       -0.1848425924        2.6532218354
 H          1.6402941785       -0.2267868921        3.1960410954
  44
  -76.4926727300000       0.424965646796316      !
 O          4.2848187978       -1.3321912869       -2.2116116232
 S          3.8499107073       -0.0754334573       -1.6573800058
 O          4.2532468830        1.1177620095       -2.3569938182
 C          4.2113849573        0.0310881283        0.0912144097
 C          5.4402835443        0.0804602158        0.6979816367
 C          5.4963428188        0.1597144354        2.0851582459
 C          4.3187116403        0.1866026051        2.8272460694
 C          3.0841144208        0.1370474781        2.2128900351
 C          3.0101555245        0.0580244664        0.8174986505
 C          1.8259946846       -0.0004627413        0.0008318880
 C          0.4927249498        0.0167313964        0.4264150638
 C         -0.5136043626       -0.0434956769       -0.5166187663
 N         -1.8777046456       -0.0186205245       -0.0766056760
 C         -2.4585833771        1.2122713169        0.0755468372
 C         -1.7547118089        2.3797988700       -0.2735062744
 C         -2.3043176114        3.6251134093       -0.1197766270
 C         -3.6047510270        3.7748405299        0.4099459029
 C         -4.3178215497        2.6617475501        0.7647114956
 C         -3.7814062294        1.3799372589        0.6016747529
 S         -4.7566130721        0.0471244567        1.1180384004
 C         -3.8078604293       -1.3342353392        0.6864592180
 C         -4.3710262179       -2.5925395808        0.9253895686
 C         -3.6734296006       -3.7393845586        0.6583542865
 C         -2.3597625873       -3.6486741074        0.1483002835
 C         -1.7856742287       -2.4263545571       -0.0825347710
 C         -2.4769380183       -1.2260692781        0.1651485356
 C         -0.2472919635       -0.1232734750       -1.8887406141
 C          1.0776334696       -0.1401528851       -2.3161141073
 C          2.0784253997       -0.0794476044       -1.3840470383
 H          6.3375582613        0.0577340539        0.0996182195
 H          6.4508263214        0.2002809183        2.5861167496
 H          4.3738448769        0.2472883641        3.9044849286
 H          2.1819854457        0.1587464144        2.8053745415
 H          0.2439651096        0.0782725242        1.4748171796
 H         -0.7593935552        2.2846657644       -0.6775201709
 H         -1.7394449065        4.4980815339       -0.4039008413
 H         -4.0279231401        4.7583441372        0.5314666406
 H         -5.3130666575        2.7456253116        1.1742850942
 H         -5.3734606345       -2.6310226583        1.3236058188
 H         -4.1176677291       -4.7048050174        0.8366334897
 H         -1.8041266778       -4.5484855936       -0.0593240311
 H         -0.7807918172       -2.3760462171       -0.4699796203
 H         -1.0633554194       -0.1684960892       -2.5916641393
 H          1.3189173295       -0.1992959081       -3.3655412951
  44
  -76.4916832300000       0.149145828033471      !
 O          4.4576240183       -2.1962572561       -0.7279308851
 S          3.9144705807       -0.9417721880       -1.1830653693
 O          4.2588924634       -0.5317071586       -2.5206069423
 C          4.2009713669        0.3636957889        0.0057170339
 C          5.3928044143        0.9529564235        0.3423784632
 C          5.3897954566        1.9691045022        1.2916575939
 C          4.1925136110        2.3635960043        1.8827454873
 C          2.9952079564        1.7691003326        1.5405245484
 C          2.9797124530        0.7507825952        0.5802826937
 C          1.8348058721        0.0533170815        0.0562304451
 C          0.4903225991        0.2511421142        0.3873535963
 C         -0.4838612174       -0.4569400544       -0.2904608706
 N         -1.8594536946       -0.1964584647        0.0008557165
 C         -2.3525936011        1.0215977445       -0.3945525553
 C         -1.5633783046        1.9022469298       -1.1598059139
 C         -1.9997730185        3.1551874602       -1.4981739824
 C         -3.2737947201        3.6066354221       -1.0897879871
 C         -4.0913475801        2.7585518057       -0.3926730385
 C         -3.6719156507        1.4677546074       -0.0545483406
 S         -4.8203027625        0.4574173768        0.7533254240
 C         -3.9599612049       -1.0281809277        0.9703795520
 C         -4.6619447140       -2.0819657175        1.5663489639
 C         -4.0385603446       -3.2619099035        1.8699878469
 C         -2.6576261921       -3.3987560170        1.6140914423
 C         -1.9531692539       -2.3795849459        1.0277552505
 C         -2.5727392124       -1.1761244741        0.6439090358
 C         -0.1644384800       -1.3876342623       -1.2886048510
 C          1.1734867933       -1.6061166874       -1.6035559983
 C          2.1390865687       -0.8961180404       -0.9417279018
 H          6.3064661404        0.6288068802       -0.1308581034
 H          6.3132448700        2.4533485760        1.5681825259
 H          4.2019072930        3.1533637340        2.6199385437
 H          2.0763336015        2.0916835549        2.0064394514
 H          0.2049740485        0.9626908457        1.1472611508
 H         -0.5896139131        1.5774961799       -1.4888400086
 H         -1.3657479467        3.8012858290       -2.0831928136
 H         -3.6022136326        4.6009059681       -1.3438337254
 H         -5.0837983287        3.0620387297       -0.0951038397
 H         -5.7090748016       -1.9332172722        1.7831784073
 H         -4.5885666885       -4.0728847030        2.3184877556
 H         -2.1520571666       -4.3109791692        1.8858096345
 H         -0.8970040947       -2.5015173275        0.8493601661
 H         -0.9525777257       -1.9111718177       -1.8054436570
 H          1.4518305977       -2.3142057029       -2.3678280123
