  70
       -108.13699006
 C          9.4461358133       -2.8975143611        1.7981053550
 C          8.3645096637       -3.6041058915        1.2986021222
 C          7.2127294858       -2.9393281566        0.9228856600
 C          7.1243388771       -1.5522638116        1.0334446538
 C          5.9032772569       -0.8435373680        0.6317616919
 C          4.6444836702       -1.3816189477        0.9412082133
 C          3.4712445314       -0.7512473426        0.5865105204
 C          3.5594853440        0.4460099098       -0.1151610062
 C          4.8208161674        1.0164369105       -0.4192163977
 C          5.9855030105        0.3710019030       -0.0453982142
 C          4.5501218618        2.2555817956       -1.0972450826
 C          5.3555329272        3.2422539242       -1.6447817253
 C          4.7511533661        4.3233800567       -2.2608467086
 C          3.3641643510        4.4179636357       -2.3466088085
 C          2.5404672687        3.4474938238       -1.8073145821
 C          3.1407056120        2.3725649617       -1.1656545134
 N          2.5602024239        1.2732517603       -0.5680801356
 C          1.1864977904        1.0362406226       -0.4440019326
 C          0.6396924201       -0.1946124558       -0.8292785283
 C         -0.7025206600       -0.4253332504       -0.6977550225
 C         -1.5759023285        0.5574329085       -0.1739314134
 C         -2.9653201896        0.2545226599       -0.0530325463
 C         -3.9264278582        1.1186472088        0.5043380621
 C         -5.2391349851        0.6890692127        0.5774305318
 C         -6.3220585196        1.4746980191        1.1366701967
 C         -7.5701570769        0.8638235639        1.3311451015
 C         -8.6270597251        1.5656952718        1.8672039626
 C         -8.4751302272        2.8977456490        2.2234418681
 C         -7.2494971674        3.5178102290        2.0301537842
 C         -6.1861284269        2.8220055399        1.4941152437
 N         -5.5571498027       -0.5520949591        0.1131061053
 C         -4.6320101199       -1.3504889828       -0.3866279307
 C         -5.0175593828       -2.6823466597       -0.8511853442
 C         -4.0534007058       -3.5704567137       -1.3219255940
 C         -4.4211585892       -4.8290640181       -1.7556645276
 C         -5.7527200462       -5.2133225665       -1.7251798724
 C         -6.7173019727       -4.3335833553       -1.2596117298
 C         -6.3537858698       -3.0741027486       -0.8241195220
 N         -3.3833530613       -0.9716006791       -0.4813216848
 C         -1.0056992522        1.7922967996        0.2043755759
 C          0.3393912362        2.0241900613        0.0700348970
 C          8.2211591083       -0.8518579825        1.5340645524
 C          9.3692422211       -1.5194536739        1.9157537321
 H         10.3443983037       -3.4182047498        2.0947062062
 H          8.4203669809       -4.6784515842        1.2001560263
 H          6.3797921070       -3.4948148445        0.5171272077
 H          4.5973896247       -2.3037379262        1.5007945591
 H          2.5135829574       -1.1667492247        0.8598117695
 H          6.9471368054        0.7941932960       -0.2928689366
 H          6.4309124883        3.1626496976       -1.5950750990
 H          5.3608959144        5.1027662802       -2.6924465640
 H          2.9226689720        5.2652544408       -2.8494727131
 H          1.4671414734        3.5168503043       -1.8936161164
 H          1.2857967125       -0.9467953586       -1.2582672003
 H         -1.1307966050       -1.3668916391       -1.0044874806
 H         -3.6373871897        2.0835122501        0.8826208739
 H         -7.6800218331       -0.1743237772        1.0577404673
 H         -9.5784182754        1.0744114148        2.0128124237
 H         -9.3025713207        3.4484914579        2.6449388837
 H         -7.1249543374        4.5569187161        2.3000925900
 H         -5.2490953910        3.3359209606        1.3446017347
 H         -3.0210351145       -3.2562401560       -1.3400154775
 H         -3.6703649743       -5.5149107124       -2.1199824313
 H         -6.0384082162       -6.1981633627       -2.0645156918
 H         -7.7546611741       -4.6336879124       -1.2366838097
 H         -7.0926316175       -2.3757024659       -0.4616867401
 H         -1.6256161449        2.5739617479        0.6138592792
 H          0.7623118015        2.9664372638        0.3873085354
 H          8.1606653314        0.2208416417        1.6469068758
 H         10.2074722020       -0.9634701704        2.3098265857
