  46
        -75.47149220
 N         -8.1433269485       -0.0042622279        0.0689807737
 C         -6.9967676082       -0.0022409825        0.0509299989
 C         -5.5842550136       -0.0011924790        0.0308146145
 C         -4.9012783981        0.5620817967       -1.0490706136
 C         -3.5227567192        0.5617121215       -1.0655668980
 C         -2.8061318850        0.0023665731       -0.0076862703
 N         -1.3977325817        0.0037452722       -0.0252338820
 C         -0.7015929822        1.2154749496       -0.0087949875
 C         -1.3702078357        2.4296381485        0.0635167917
 C         -0.6794259847        3.6319952817        0.0265916978
 C          0.6932272768        3.6286356111       -0.0936577806
 C          1.3785487476        2.4229268377       -0.1195872429
 C          0.7042914979        1.2126028125       -0.0364278572
 N          1.3972564425       -0.0006357839       -0.0079633803
 C          2.8059076830       -0.0015159842        0.0036814646
 C          3.4976678025        0.5537185044        1.0801453941
 C          4.8761144158        0.5550144992        1.0954880340
 C          5.5839635109       -0.0024842256        0.0286189936
 C          6.9966547691       -0.0031524452        0.0409251359
 N          8.1433840157       -0.0032390313        0.0505964764
 C          4.8948760380       -0.5593282324       -1.0508418665
 C          3.5163531582       -0.5570059410       -1.0603740759
 C          0.7011340506       -1.2120828754       -0.0008965667
 C          1.3694336911       -2.4258958610        0.0798121553
 C          0.6794563368       -3.6284006467        0.0339556142
 C         -0.6915457542       -3.6252923263       -0.1045856959
 C         -1.3769356615       -2.4198214534       -0.1387958911
 C         -0.7041917385       -1.2093558782       -0.0453481175
 C         -3.4919762794       -0.5600713431        1.0689427840
 C         -4.8702237259       -0.5637436338        1.0910081157
 H         -5.4587455534        0.9885923937       -1.8696295086
 H         -2.9875837485        0.9888439945       -1.9004846378
 H         -2.4448418011        2.4438692423        0.1535015887
 H         -1.2263877970        4.5600320188        0.0818387086
 H          1.2441221232        4.5537888546       -0.1570936567
 H          2.4534437260        2.4307589721       -0.2079752576
 H          2.9427946060        0.9782825682        1.9034501011
 H          5.4142981791        0.9780097972        1.9305897409
 H          5.4477117787       -0.9818305447       -1.8765976716
 H          2.9761259249       -0.9797144388       -1.8943623615
 H          2.4429456049       -2.4392658378        0.1830386926
 H          1.2257634596       -4.5563679653        0.0962418656
 H         -1.2412356899       -4.5505999438       -0.1759513953
 H         -2.4505809085       -2.4278305666       -0.2415775151
 H         -2.9324171236       -0.9883768843        1.8871328984
 H         -5.4036334432       -0.9917715488        1.9266329986
  46
        -75.47131257
 N         -8.1433942862       -0.0035010133       -0.0482518511
 C         -6.9967842139       -0.0012562666       -0.0326166292
 C         -5.5840847659        0.0000640414       -0.0164796449
 C         -4.8743045687        0.4442326033       -1.1341530387
 C         -3.4958788896        0.4432924733       -1.1166571131
 C         -2.8061463283        0.0021462888        0.0125359783
 N         -1.3974044659        0.0022109793        0.0258225691
 C         -0.7030603891        1.2117042534       -0.0685460666
 C         -1.3772940313        2.4249137043       -0.0819868658
 C         -0.6896151366        3.6281689517       -0.1391546423
 C          0.6880403518        3.6280824271       -0.1498461936
 C          1.3766386902        2.4248944068       -0.1023878333
 C          0.7028554472        1.2116249589       -0.0778898135
 N          1.3974538696        0.0015974829        0.0081078697
 C          2.8061678322        0.0006282816        0.0001498964
 C          3.5131932341       -0.4421995999        1.1178786720
 C          4.8918430344       -0.4463925970        1.1127303657
 C          5.5843174878       -0.0039612198       -0.0163328757
 C          6.9970373116       -0.0065641683       -0.0255347184
 N          8.1435096437       -0.0111253973       -0.0350663554
 C          4.8799540768        0.4412347822       -1.1369479882
 C          3.5013495541        0.4415524307       -1.1257537786
 C          0.7030912324       -1.2082909749        0.0997855921
 C          1.3770132537       -2.4216629522        0.1116267315
 C          0.6891983162       -3.6250192870        0.1652259287
 C         -0.6884053245       -3.6248736017        0.1746582860
 C         -1.3767672241       -2.4214460308        0.1300010235
 C         -0.7029181059       -1.2081815776        0.1084986345
 C         -3.5184300417       -0.4391360898        1.1274048473
 C         -4.8971442122       -0.4421747930        1.1159201992
 H         -5.4110870279        0.7783142287       -2.0095294105
 H         -2.9392703614        0.7788321615       -1.9790146388
 H         -2.4546511235        2.4381883676       -0.0346064558
 H         -1.2417927921        4.5545750649       -0.1578355585
 H          1.2399013689        4.5544655134       -0.1774524281
 H          2.4545328526        2.4386971037       -0.0710215499
 H          2.9701272361       -0.7766881323        1.9892323929
 H          5.4420332361       -0.7821558729        1.9791171797
 H          5.4209621188        0.7750596232       -2.0098363903
 H          2.9491426241        0.7767498171       -1.9910806983
 H          2.4543546630       -2.4353229994        0.0649767463
 H          1.2413570459       -4.5514651889        0.1822507801
 H         -1.2404253578       -4.5512368699        0.1994867278
 H         -2.4546225151       -2.4351457397        0.0980734985
 H         -2.9797183807       -0.7725323800        2.0018417974
 H         -5.4515434445       -0.7756153039        1.9805334974
  46
        -75.47128011
 N         -8.0984268995        0.0371826326        0.5950210322
 C         -6.9599984634        0.0318336614        0.4574357393
 C         -5.5572764151        0.0245235722        0.2904688688
 C         -4.9913976137       -0.5437216093       -0.8524359596
 C         -3.6212990034       -0.5529117816       -1.0101102962
 C         -2.7971529362        0.0005964954       -0.0305814280
 N         -1.3967010862       -0.0112391992       -0.1786845771
 C         -0.7060201211        1.2024719659       -0.2452850233
 C         -1.3907431460        2.4034820216       -0.3694253346
 C         -0.7160443260        3.6151196524       -0.3773090406
 C          0.6562334045        3.6323212392       -0.2519285420
 C          1.3574660643        2.4377639197       -0.1766390281
 C          0.6994738331        1.2162220191       -0.2128582346
 N          1.3972665451        0.0059850847       -0.1862849977
 C          2.7976069995       -0.0053835487       -0.0372497851
 C          3.3674055231       -0.5794582570        1.0997181756
 C          4.7353342684       -0.5875460719        1.2655738487
 C          5.5571279137       -0.0190417099        0.2895704170
 C          6.9594194822       -0.0182077160        0.4606043554
 N          8.0975735685       -0.0157488422        0.6013684131
 C          4.9915274854        0.5482409799       -0.8539219138
 C          3.6217438668        0.5520567622       -1.0145902248
 C          0.7061674609       -1.2074690010       -0.2506711556
 C          1.3902943546       -2.4082645431       -0.3797389135
 C          0.7153707147       -3.6198062990       -0.3855268913
 C         -0.6562132702       -3.6372365284       -0.2526725468
 C         -1.3570911355       -2.4427998296       -0.1722353944
 C         -0.6991207347       -1.2213274105       -0.2109015933
 C         -3.3670963356        0.5739281328        1.1067487359
 C         -4.7353008943        0.5872034278        1.2697124533
 H         -5.6325109824       -0.9677487541       -1.6109494661
 H         -3.1786170604       -0.9783573278       -1.8983295452
 H         -2.4659788252        2.3968317861       -0.4565003465
 H         -1.2740020495        4.5337155580       -0.4680059799
 H          1.1956015494        4.5659936588       -0.2219315233
 H          2.4310877086        2.4659116628       -0.0803513899
 H          2.7244667780       -1.0150673934        1.8500901488
 H          5.1776798140       -1.0213643312        2.1499421618
 H          5.6324811943        0.9766934218       -1.6100664424
 H          3.1792579547        0.9765403603       -1.9033585568
 H          2.4648976127       -2.4013281115       -0.4746889346
 H          1.2722691033       -4.5381193487       -0.4852105469
 H         -1.1955328179       -4.5709872365       -0.2241168863
 H         -2.4303523553       -2.4706434204       -0.0712312932
 H         -2.7239047860        1.0066161842        1.8585892663
 H         -5.1778111970        1.0239397278        2.1525761247
  46
        -75.47113693
 N         -8.1100269034       -0.0009209408        0.5134107555
 C         -6.9695254289       -0.0025135144        0.3942791831
 C         -5.5641024029       -0.0014950822        0.2506457235
 C         -4.9819487659        0.4499423470       -0.9353916833
 C         -3.6094638005        0.4521138255       -1.0703749897
 C         -2.7994083790        0.0086158399       -0.0253648506
 N         -1.3966848626        0.0116929874       -0.1528201234
 C         -0.7012274380        1.2180970326       -0.2833970433
 C         -1.3716883372        2.4322352541       -0.3333754998
 C         -0.6818434071        3.6322054087       -0.4248750963
 C          0.6954292569        3.6290197570       -0.4368922848
 C          1.3810812701        2.4259516969       -0.3551584260
 C          0.7058050622        1.2151461596       -0.2923141346
 N          1.3973569445        0.0058767174       -0.1670212912
 C          2.7999486885       -0.0015147252       -0.0358291887
 C          3.3804777033       -0.4493619004        1.1509855580
 C          4.7508014527       -0.4571841326        1.2969258155
 C          5.5633279244       -0.0147250271        0.2505439606
 C          6.9682099845       -0.0164108021        0.3998839894
 N          8.1081115509       -0.0175303185        0.5233599054
 C          4.9866035009        0.4270007843       -0.9417048069
 C          3.6145231963        0.4306990249       -1.0818944576
 C          0.7004002065       -1.2038657299       -0.1129453137
 C          1.3737974455       -2.4176432997       -0.1332255158
 C          0.6830116644       -3.6201743666       -0.1153918892
 C         -0.6952065810       -3.6176871642       -0.1123445908
 C         -1.3818798818       -2.4127204586       -0.1257434331
 C         -0.7042474941       -1.2012993830       -0.1078991251
 C         -3.3853604697       -0.4476079430        1.1556262405
 C         -4.7562885062       -0.4541718911        1.2962487197
 H         -5.6122434174        0.7879410121       -1.7444893234
 H         -3.1531378952        0.7882696237       -1.9894608504
 H         -2.4484918853        2.4517336703       -0.2820683858
 H         -1.2325978480        4.5585769775       -0.4693537313
 H          1.2496596766        4.5527537493       -0.4918644511
 H          2.4586242916        2.4404982300       -0.3213061400
 H          2.7441646523       -0.7865546437        1.9556772688
 H          5.2022913243       -0.7949687267        2.2178292859
 H          5.6206206667        0.7567466351       -1.7513227845
 H          3.1623650711        0.7585396421       -2.0060466652
 H          2.4517799964       -2.4291974532       -0.1716104053
 H          1.2327175282       -4.5482303379       -0.1207132843
 H         -1.2482948858       -4.5437552528       -0.1157996937
 H         -2.4600461421       -2.4208591124       -0.1584395814
 H         -2.7529185542       -0.7923329291        1.9602173003
 H         -5.2118303293       -0.7985087727        2.2126930851
  46
        -75.47109978
 N         -8.0582381001       -0.0057430523        0.8141044585
 C         -6.9272198634       -0.0079873425        0.6251852590
 C         -5.5333143146       -0.0080876359        0.3958408788
 C         -5.0157409335        0.5588622149       -0.7701570187
 C         -3.6536600870        0.5629104383       -0.9878816627
 C         -2.7897945289        0.0064950672       -0.0450490977
 N         -1.3961538922        0.0172864748       -0.2467276708
 C         -0.6928775279        1.2235721509       -0.2940939194
 C         -1.3410114437        2.4507704634       -0.2755396463
 C         -0.6295322354        3.6380839117       -0.3681910141
 C          0.7426357147        3.6083573506       -0.4936642172
 C          1.4074601529        2.3915939242       -0.4695313519
 C          0.7122895854        1.1985989269       -0.3282976776
 N          1.3958732796       -0.0182293185       -0.2452766781
 C          2.7895984904       -0.0075861517       -0.0441298202
 C          3.3125270925        0.5675388840        1.1148477558
 C          4.6723076715        0.5769030994        1.3363218881
 C          5.5334624043        0.0087237506        0.3945137702
 C          6.9276461214        0.0098673472        0.6222897483
 N          8.0588848850        0.0109395989        0.8098476144
 C          5.0154005678       -0.5570982745       -0.7718237463
 C          3.6531429967       -0.5619641422       -0.9884381317
 C          0.6926875619       -1.2244235708       -0.2951270633
 C          1.3408435912       -2.4516258035       -0.2776725137
 C          0.6294481163       -3.6387927805       -0.3729025045
 C         -0.7425857543       -3.6088831689       -0.4998997356
 C         -1.4074749689       -2.3921630718       -0.4746331996
 C         -0.7124515486       -1.1994028109       -0.3308064321
 C         -3.3122927292       -0.5701423783        1.1133638895
 C         -4.6718834209       -0.5786332571        1.3359709500
 H         -5.6877860271        0.9852715326       -1.5000261596
 H         -3.2491532644        0.9858959306       -1.8952366109
 H         -2.4138745235        2.4896867375       -0.1757202723
 H         -1.1609892110        4.5766280010       -0.3512367198
 H          1.3073940705        4.5211980242       -0.5991369768
 H          2.4827410907        2.3734501258       -0.5562180891
 H          2.6389618828        1.0025800770        1.8382362277
 H          5.0781607946        1.0122848208        2.2372639266
 H          5.6871620166       -0.9821708715       -1.5027388291
 H          3.2481866825       -0.9843037639       -1.8959066697
 H          2.4136004117       -2.4906689624       -0.1766319787
 H          1.1608693642       -4.5773802716       -0.3567832612
 H         -1.3071781930       -4.5215814223       -0.6075173591
 H         -2.4826676224       -2.3738510751       -0.5625128039
 H         -2.6384978328       -1.0068488719        1.8355173727
 H         -5.0773792849       -1.0155252398        2.2363268610
  46
        -75.47101555
 N         -8.0860405803       -0.0010790897       -0.6679506031
 C         -6.9497086624        0.0017006088       -0.5139961639
 C         -5.5496396596        0.0033879496       -0.3252049726
 C         -4.7092808811        0.4529670552       -1.3462466130
 C         -3.3436834395        0.4473281394       -1.1620023977
 C         -2.7951332621       -0.0056778856        0.0381038687
 N         -1.3964579240       -0.0108317545        0.2046786003
 C         -0.7030313312        1.2015645615        0.1686266131
 C         -1.3801933926        2.4130380699        0.1985011739
 C         -0.6921733273        3.6172256279        0.1953543257
 C          0.6862353659        3.6184264294        0.1966865605
 C          1.3762735594        2.4154000293        0.2011457082
 C          0.7012059761        1.2027822985        0.1698716410
 N          1.3968629608       -0.0082846539        0.2074247420
 C          2.7953516209       -0.0007053559        0.0393607046
 C          3.6396953123       -0.4369992678        1.0598695166
 C          5.0071535636       -0.4334452745        0.8797781832
 C          5.5494054348        0.0126326385       -0.3269047600
 C          6.9491560927        0.0129997294       -0.5174906158
 N          8.0853108743        0.0121201439       -0.6706741910
 C          4.7072891281        0.4616031967       -1.3467658189
 C          3.3419103713        0.4537438225       -1.1610840762
 C          0.7048221008       -1.2159428172        0.3471279812
 C          1.3784973446       -2.4271730359        0.4167858573
 C          0.6916604508       -3.6283566477        0.5148547347
 C         -0.6856095197       -3.6295388580        0.5136700938
 C         -1.3742748684       -2.4295311956        0.4144205689
 C         -0.7025044087       -1.2171592252        0.3459901943
 C         -3.6376970600       -0.4428006395        1.0596517962
 C         -5.0053703586       -0.4413652863        0.8810238229
 H         -5.1356346198        0.7939702223       -2.2778783644
 H         -2.6859432787        0.7906577351       -1.9466433815
 H         -2.4584684585        2.4207139112        0.2306720591
 H         -1.2440413094        4.5439459515        0.2077329275
 H          1.2364618173        4.5461069573        0.2107742527
 H          2.4544602554        2.4247672649        0.2362966871
 H          3.2147670843       -0.7672715170        1.9959729394
 H          5.6642056836       -0.7666204033        1.6693757258
 H          5.1320544740        0.8037329561       -2.2787295779
 H          2.6828693579        0.7962442496       -1.9450076697
 H          2.4556487538       -2.4442016957        0.3745628536
 H          1.2449065185       -4.5524240286        0.5739572303
 H         -1.2373752866       -4.5545091823        0.5724083339
 H         -2.4513212283       -2.4482912628        0.3703173678
 H         -3.2113100087       -0.7719580682        1.9954707389
 H         -5.6610119612       -0.7753890012        1.6714028140
  46
        -75.46858491
 N         -6.0269422035       -0.0004534820        3.8498889302
 C         -5.2162513336        0.0002845350        3.0376521401
 C         -4.2255596344        0.0006541242        2.0355604093
 C         -3.7190746756        1.2030782464        1.5388118583
 C         -2.7645653993        1.2022684658        0.5482647614
 C         -2.2896676453        0.0002164527        0.0050268191
 N         -1.3336836997       -0.0000592913       -0.9894408405
 C         -0.6983273388        1.1651720082       -1.4723261064
 C         -1.3899977091        2.2320089250       -2.0286686668
 C         -0.6904213120        3.3138146813       -2.5352080567
 C          0.6942923981        3.3136092692       -2.5356225812
 C          1.3935057493        2.2310941222       -2.0301909507
 C          0.7014815296        1.1644260508       -1.4740750592
 N          1.3376245017       -0.0018296777       -0.9949250642
 C          2.2935800073       -0.0024941176       -0.0004208195
 C          2.7578950852        1.1995555757        0.5521710068
 C          3.7096780069        1.2010839702        1.5451360984
 C          4.2250115380       -0.0008921917        2.0342522808
 C          5.2110324169        0.0005200646        3.0409508101
 N          6.0162584553        0.0022359663        3.8586684351
 C          3.7300351948       -1.2040499758        1.5275076971
 C          2.7778423610       -1.2043861436        0.5347272634
 C          0.7002435124       -1.1658389997       -1.4784066061
 C          1.3897579863       -2.2304543810       -2.0415451345
 C          0.6883614361       -3.3106175677       -2.5491171261
 C         -0.6963038683       -3.3105152961       -2.5438610461
 C         -1.3936424456       -2.2299178400       -2.0317998877
 C         -0.6997311617       -1.1651328011       -1.4742778791
 C         -2.7636853247       -1.2017108870        0.5495557467
 C         -3.7179670989       -1.2021289921        1.5402004601
 H         -4.0758187964        2.1391051105        1.9425257012
 H         -2.3639677979        2.1440598583        0.2093227929
 H         -2.4679526216        2.2077785268       -2.0738787322
 H         -1.2309933903        4.1495240445       -2.9518402902
 H          1.2349579071        4.1493465617       -2.9520110147
 H          2.4714979528        2.2061544359       -2.0748296747
 H          2.3509559997        2.1402855171        0.2179074463
 H          4.0579789159        2.1369637294        1.9564749910
 H          4.0942544908       -2.1397900904        1.9251305921
 H          2.3861789698       -2.1470323867        0.1879041803
 H          2.4674709013       -2.2053948811       -2.0915286377
 H          1.2271502865       -4.1447920814       -2.9710373172
 H         -1.2385317311       -4.1446694218       -2.9614532871
 H         -2.4717102857       -2.2045723000       -2.0737271841
 H         -2.3627004736       -2.1434378452        0.2107910555
 H         -4.0747042233       -2.1378461901        1.9446453101
  46
        -75.46833041
 N         -7.6117027685       -0.0339180147       -1.9821223265
 C         -6.5642780523       -0.0243160514       -1.5156445267
 C         -5.2679960267       -0.0066819218       -0.9546008262
 C         -4.1926018981        0.4768614017       -1.7041189922
 C         -2.9270313342        0.4737092103       -1.1623073290
 C         -2.7076935051       -0.0132674510        0.1278715030
 N         -1.3926176838       -0.0211093798        0.6309254211
 C         -0.7023420736        1.1926559681        0.6777486937
 C         -1.3881449960        2.3964111856        0.7699727847
 C         -0.7002349901        3.5977132949        0.8409840927
 C          0.6803942795        3.6019231032        0.8477632400
 C          1.3757707468        2.4045766211        0.7838626198
 C          0.6977224528        1.1970124053        0.6852060662
 N          1.3970433947       -0.0119620003        0.6468911931
 C          2.7099242623        0.0036926296        0.1375538972
 C          3.7970339428       -0.4368513601        0.8903962765
 C          5.0656386671       -0.4303284797        0.3461772374
 C          5.2650434368        0.0277073193       -0.9566538512
 C          6.5592271057        0.0205039363       -1.5228530487
 N          7.6035472788        0.0223682686       -1.9964738070
 C          4.1823653105        0.5000882591       -1.7028370172
 C          2.9193681373        0.4882387526       -1.1551752475
 C          0.7087644562       -1.2148598732        0.8573895025
 C          1.3850991523       -2.4150752038        1.0195328659
 C          0.7001571110       -3.6089548864        1.1891072552
 C         -0.6773457621       -3.6141562271        1.1776034072
 C         -1.3687430290       -2.4254503788        0.9982850261
 C         -0.6993103892       -1.2196528413        0.8483470881
 C         -3.7878666533       -0.4648706128        0.8843309614
 C         -5.0589056455       -0.4671776904        0.3459120111
 H         -4.3595127164        0.8400362144       -2.7072462055
 H         -2.0887804489        0.8426417229       -1.7350504821
 H         -2.4675711893        2.3921427886        0.7797003550
 H         -1.2512149558        4.5232579779        0.9001702487
 H          1.2252486935        4.5307488957        0.9119708970
 H          2.4550949593        2.4058850140        0.8038291537
 H          3.6474262404       -0.7616704373        1.9089901967
 H          5.9106567309       -0.7709562356        0.9260663284
 H          4.3414423910        0.8599754598       -2.7084227417
 H          2.0748597482        0.8448572808       -1.7266072608
 H          2.4618039420       -2.4325671377        0.9828063538
 H          1.2543250333       -4.5259687020        1.3140057471
 H         -1.2265599017       -4.5354398350        1.2926529072
 H         -2.4445577130       -2.4516749831        0.9442490994
 H         -3.6306756089       -0.7921904565        1.9009927039
 H         -5.8979945618       -0.8191104025        0.9276538027
  46
        -75.46807189
 N         -7.4138335232       -0.0868806648        2.2257459658
 C         -6.3529588958       -0.0785302243        1.7921258464
 C         -5.0457781938       -0.0664541240        1.2525436616
 C         -4.8483419609       -0.3632483955       -0.0968747924
 C         -3.5731330006       -0.3485326319       -0.6241510745
 C         -2.4841240427       -0.0472858596        0.1909882708
 N         -1.1631154413       -0.0161846123       -0.3153944682
 C         -0.6074175232        1.2242388145       -0.6383568134
 C         -1.3609023687        2.3932355924       -0.6552806437
 C         -0.7925761243        3.5818096299       -1.0781379173
 C          0.5129922208        3.6106186330       -1.5347133191
 C          1.2745315459        2.4538456097       -1.5162687750
 C          0.7397196571        1.2748950032       -1.0204717766
 N          1.4982286111        0.0872320584       -0.9216521174
 C          2.6357732706        0.0050175385       -0.1396635520
 C          3.1926642491        1.1507367364        0.4489178746
 C          4.3431131688        1.0792890266        1.1987742549
 C          4.9815039880       -0.1453602378        1.4048822872
 C          6.1709450824       -0.2157228510        2.1555425136
 N          7.1414027846       -0.2703108469        2.7664337493
 C          4.4045712188       -1.3002220329        0.8731092803
 C          3.2539310626       -1.2265984509        0.1232944243
 C          0.7595277083       -1.0570461284       -1.3024370462
 C          1.3225892331       -2.0725654904       -2.0585883530
 C          0.6097516789       -3.2337844106       -2.3094295775
 C         -0.6655548179       -3.3770450484       -1.7947366299
 C         -1.2688223641       -2.3347582296       -1.1120509398
 C         -0.5852857916       -1.1413673755       -0.9058247710
 C         -2.6850047186        0.2619474730        1.5335852926
 C         -3.9576902622        0.2526738498        2.0662042348
 H         -5.6973716636       -0.5928446045       -0.7234006464
 H         -3.4159830484       -0.5527304181       -1.6728626444
 H         -2.3932741980        2.3713943699       -0.3409592825
 H         -1.3860129431        4.4830104356       -1.0738991831
 H          0.9425612784        4.5295478387       -1.9015457603
 H          2.2912149906        2.4613443048       -1.8786380803
 H          2.7062965702        2.1063879022        0.3387230856
 H          4.7551385140        1.9756785922        1.6384720334
 H          4.8655268500       -2.2595831086        1.0575541664
 H          2.8167369718       -2.1410563050       -0.2428096946
 H          2.3264264041       -1.9539381512       -2.4370297013
 H          1.0604302836       -4.0274598702       -2.8841733639
 H         -1.2098867020       -4.2973169333       -1.9405430779
 H         -2.2698498700       -2.4583159719       -0.7296242719
 H         -1.8344673940        0.5100153113        2.1505580623
 H         -4.1190106913        0.4882597708        3.1074030803
  46
        -75.46806408
 N         -7.0546472722       -0.3027041854       -2.8669346044
 C         -6.1011229856       -0.2374709836       -2.2310750441
 C         -4.9332765032       -0.1575632275       -1.4481079199
 C         -4.3119528091        1.0723544091       -1.2229543436
 C         -3.1799277561        1.1522658552       -0.4463042396
 C         -2.6250952814        0.0097677935        0.1499587590
 N         -1.5019903428        0.0986982583        0.9524220920
 C         -0.7449685749        1.2876434564        1.0507686888
 C         -1.2832479385        2.4678100666        1.5396285601
 C         -0.5231412467        3.6255686527        1.5556583269
 C          0.7840699011        3.5964259234        1.1035556528
 C          1.3553858898        2.4069418077        0.6874980833
 C          0.6032312631        1.2369741207        0.6727762900
 N          1.1626040559       -0.0036747866        0.3587097941
 C          2.4730029859       -0.0380816465       -0.1714477425
 C          3.5749268608       -0.3649146721        0.6160466960
 C          4.8379794516       -0.3936891982        0.0605534167
 C          5.0111291732       -0.0836171532       -1.2889486284
 C          6.3040687573       -0.1170794876       -1.8606206323
 N          7.3519994562       -0.1457820794       -2.3238811557
 C          3.9112807781        0.2678283086       -2.0734121999
 C          2.6510206657        0.2899637134       -1.5132767811
 C          0.5832129531       -1.1285370850        0.9480397792
 C          1.2642516569       -2.3229574726        1.1572535592
 C          0.6576209271       -3.3638481372        1.8389812688
 C         -0.6195683770       -3.2194811778        2.3487724871
 C         -1.3306256055       -2.0582851273        2.0932210671
 C         -0.7630183568       -1.0435182563        1.3395421900
 C         -3.2286581941       -1.2261803655       -0.1259080498
 C         -4.3606323782       -1.3082251754       -0.9027459596
 H         -4.7223351155        1.9664384130       -1.6689749136
 H         -2.7059282531        2.1122949711       -0.3214430174
 H         -2.3012938650        2.4753387094        1.8981837157
 H         -0.9549695166        4.5455796270        1.9171073956
 H          1.3761234844        4.4985314141        1.0974327529
 H          2.3888474589        2.3844757543        0.3766556774
 H          3.4385959120       -0.5777172983        1.6658912105
 H          5.6962563985       -0.6456306877        0.6655326230
 H          4.0539784094        0.5148272520       -3.1146767773
 H          1.7915868796        0.5604371403       -2.1081965273
 H          2.2654784091       -2.4495998541        0.7767033162
 H          1.2005297652       -4.2846154633        1.9869468474
 H         -1.0732037458       -4.0127318359        2.9217514082
 H         -2.3372799035       -1.9392654921        2.4640838209
 H         -2.7933828816       -2.1373888206        0.2507138347
 H         -4.8097269388       -2.2709000151       -1.0984157466
  46
        -75.46801859
 N         -7.2896388625       -0.2884520415        2.3958272235
 C         -6.2495605805       -0.2181310985        1.9201393615
 C         -4.9661837193       -0.1352636025        1.3322450105
 C         -4.8178600647        0.4226085817        0.0617097991
 C         -3.5661308646        0.4989560992       -0.5145613722
 C         -2.4506574781        0.0294827785        0.1754405584
 N         -1.1513625352        0.0835063458       -0.3785994644
 C         -0.5667923633        1.2883973070       -0.7714443438
 C         -1.2365662055        2.5071260714       -0.7687847734
 C         -0.6215052525        3.6435931863       -1.2654434442
 C          0.6530509416        3.5778905925       -1.7974809044
 C          1.3535291437        2.3836654274       -1.7483240181
 C          0.7765423938        1.2597684963       -1.1798955288
 N          1.5073708299        0.0618572858       -0.9980324932
 C          2.6141822163        0.0039515936       -0.1697518180
 C          3.2061939666        1.1707569187        0.3359997985
 C          4.3167222581        1.1122432862        1.1449896856
 C          4.8791870402       -0.1178767496        1.4915341269
 C          6.0205281470       -0.1767390606        2.3145165672
 N          6.9493498088       -0.2222175904        2.9875156047
 C          4.2739235708       -1.2874481369        1.0279790060
 C          3.1628777732       -1.2269731961        0.2195703289
 C          0.7387615190       -1.0856190126       -1.2980400520
 C          1.2635941667       -2.1677878509       -1.9868927158
 C          0.4902699950       -3.2965750377       -2.2024591151
 C         -0.8158349341       -3.3329057569       -1.7477201935
 C         -1.3727130405       -2.2294364348       -1.1260770428
 C         -0.6071780688       -1.0885642165       -0.9093570935
 C         -2.6036352581       -0.5407318557        1.4372352162
 C         -3.8522122327       -0.6238908148        2.0168469645
 H         -5.6873952910        0.7804872717       -0.4693927495
 H         -3.4504729394        0.9021599555       -1.5095453098
 H         -2.2339174368        2.5767530404       -0.3641829431
 H         -1.1551998210        4.5813724785       -1.2498152217
 H          1.1130894943        4.4539590721       -2.2266508909
 H          2.3593676178        2.3207272803       -2.1350111499
 H          2.7772590929        2.1346419064        0.1153610661
 H          4.7549724155        2.0240329663        1.5235397893
 H          4.6782688340       -2.2468962322        1.3154945147
 H          2.6983978299       -2.1487560856       -0.0911026895
 H          2.2811942661       -2.1237686651       -2.3439940496
 H          0.9108284675       -4.1440125035       -2.7206350295
 H         -1.4185394797       -4.2151281707       -1.8987370057
 H         -2.4051356811       -2.2510569961       -0.8118569166
 H         -1.7337937085       -0.9178222714        1.9536769110
 H         -3.9758704234       -1.0651611818        2.9942628713
  46
        -75.46798453
 N         -7.2458401818        0.2606795572       -2.4689397668
 C         -6.2148919154        0.2045524007       -1.9712704982
 C         -4.9431415169        0.1359078315       -1.3568122346
 C         -3.8187575516        0.6243258032       -2.0244584644
 C         -2.5799497945        0.5461818458       -1.4235535205
 C         -2.4470778838       -0.0187479395       -0.1570262601
 N         -1.1554715897       -0.0776224910        0.4134174900
 C         -0.6030929501        1.0917764007        0.9398902166
 C         -1.3631713922        2.2348647623        1.1640267275
 C         -0.7973945768        3.3348152286        1.7840330732
 C          0.5119514203        3.2924879963        2.2291890842
 C          1.2800633034        2.1617211543        2.0049241320
 C          0.7459063264        1.0832960106        1.3175745270
 N          1.5078717294       -0.0656191804        1.0055399497
 C          2.6048400172       -0.0074065472        0.1646656033
 C          3.1521717126        1.2240179716       -0.2254385775
 C          4.2535417742        1.2853435115       -1.0467251688
 C          4.8500443841        0.1161565987       -1.5229427601
 C          5.9825433454        0.1779509855       -2.3578699691
 N          6.9047583312        0.2286028411       -3.0397473279
 C          4.2877384916       -1.1140199716       -1.1764114130
 C          3.1868288817       -1.1734602141       -0.3543550177
 C          0.7755652806       -1.2617864631        1.1934517431
 C          1.3552535751       -2.3883961655        1.7537508007
 C          0.6498909576       -3.5792949383        1.8125695764
 C         -0.6325139923       -3.6390970240        1.2986752384
 C         -1.2485569611       -2.5003133851        0.8086527001
 C         -0.5724473405       -1.2850672814        0.8002921652
 C         -3.5737745168       -0.4832142241        0.5180814527
 C         -4.8158606682       -0.4121675050       -0.0797522092
 H         -3.9256550732        1.0547878693       -3.0088008720
 H         -1.7015604908        0.9194298062       -1.9284986018
 H         -2.3975566846        2.2602251229        0.8563675619
 H         -1.3953663715        4.2190764168        1.9418540454
 H          0.9390837964        4.1367862062        2.7471467684
 H          2.3004317836        2.1134574587        2.3537304864
 H          2.6954776096        2.1455502949        0.0974356825
 H          4.6586099310        2.2449595882       -1.3327650221
 H          4.7190392632       -2.0252192703       -1.5643474945
 H          2.7571717671       -2.1370465223       -0.1334774540
 H          2.3670194856       -2.3304081515        2.1254359068
 H          1.1116151274       -4.4575991442        2.2353510299
 H         -1.1716363473       -4.5738829694        1.2932298222
 H         -2.2521227305       -2.5652098495        0.4190039701
 H         -3.4745169080       -0.8794519235        1.5176210862
 H         -5.6936614494       -0.7686067121        0.4384827047
  46
        -75.46794450
 N         -6.8569107607        0.2177179314        3.0861109094
 C         -5.9448366685        0.1690652079        2.3908787605
 C         -4.8238121562        0.1111222455        1.5403345115
 C         -4.2304069433        1.2825237722        1.0656459436
 C         -3.1388623680        1.2247180904        0.2311351204
 C         -2.5987115579       -0.0051000125       -0.1734407139
 N         -1.5104031999       -0.0596007613       -1.0263256432
 C         -0.7456642861        1.0899082548       -1.3298472266
 C         -1.2778374911        2.1736115272       -2.0103962358
 C         -0.5073412054        3.3039422079       -2.2279952612
 C          0.8021301143        3.3406404895       -1.7824147232
 C          1.3651435708        2.2363864267       -1.1678318408
 C          0.6025435529        1.0936422278       -0.9499952611
 N          1.1527828274       -0.0795595457       -0.4294880795
 C          2.4383956010       -0.0227763463        0.1530570749
 C          2.5617442913        0.5561747838        1.4143885081
 C          3.7944307401        0.6335423160        2.0275790052
 C          4.9227305834        0.1300490823        1.3779327208
 C          6.1879324317        0.1984642191        2.0055416338
 N          7.2138530206        0.2538451784        2.5134454074
 C          4.8054356518       -0.4315274781        0.1057905103
 C          3.5696132957       -0.5011130492       -0.5048329880
 C          0.5676163006       -1.2842060035       -0.8215001689
 C          1.2386073487       -2.5024402752       -0.8296963213
 C          0.6208636571       -3.6369554785       -1.3271678979
 C         -0.6584618856       -3.5707285452       -1.8480347505
 C         -1.3601176691       -2.3778598337       -1.7869710162
 C         -0.7787533708       -1.2556615270       -1.2197270148
 C         -3.1788669591       -1.1738112304        0.3412516531
 C         -4.2700254675       -1.1179249331        1.1765509903
 H         -4.6299660908        2.2408545224        1.3635417617
 H         -2.6838091543        2.1472429389       -0.0910987810
 H         -2.2985707184        2.1293571916       -2.3585881904
 H         -0.9325784906        4.1526019071       -2.7403511158
 H          1.4019696042        4.2246240637       -1.9347397475
 H          2.3994577709        2.2579138374       -0.8596438760
 H          1.6807874617        0.9421174528        1.9052090936
 H          3.8935148120        1.0756520011        3.0075602020
 H          5.6864278131       -0.7997481109       -0.3986340743
 H          3.4789773767       -0.9068427682       -1.5013279879
 H          2.2390123600       -2.5732603103       -0.4332222978
 H          1.1562154773       -4.5739146415       -1.3219060519
 H         -1.1207103756       -4.4457496518       -2.2769547971
 H         -2.3706211993       -2.3145765077       -2.1612199409
 H         -2.7556204088       -2.1368832632        0.1060154725
 H         -4.6999950638       -2.0310222637        1.5615078372
