  75
       -113.15994532
 C          4.7031665978       -4.7112730706       -1.0205738467
 C          5.3869307269       -4.1440821498        0.0476739271
 C          5.1228389441       -2.8469221211        0.4362833049
 C          4.1702444196       -2.0877991403       -0.2483073571
 N          3.8794647688       -0.7846421785        0.1435205207
 C          4.8852843581        0.0425098094        0.6440674930
 C          4.6068187887        0.9486849154        1.6695504309
 C          5.6026173276        1.7666160697        2.1625554280
 C          6.8884441024        1.6991065230        1.6440204561
 C          7.1699503463        0.8033050410        0.6252112556
 C          6.1813676567       -0.0206912088        0.1242747132
 C          2.5790284501       -0.3005828810        0.0109200487
 C          1.4914095582       -1.1992597162        0.2863145273
 C          0.1788602460       -0.7480040971        0.1851646973
 C         -0.0624081512        0.5469364485       -0.1815073155
 C          1.0259106271        1.4653746455       -0.4619641816
 C          2.3442674667        1.0067679712       -0.3501812867
 C          0.4845357765        2.7047037010       -0.8451019416
 C          1.0927588354        3.9198752330       -1.2278243005
 C          0.2952902699        4.9923245250       -1.5454991563
 C         -1.0986223518        4.9050798668       -1.5011532858
 C         -1.7192386951        3.7071342629       -1.1237182515
 C         -0.9415481343        2.6313578671       -0.8040738876
 C         -1.3926272261        1.2510821636       -0.3653231759
 C         -2.1872271608        0.5313597368       -1.4214689495
 C         -1.8269808896        0.6587520913       -2.7539126857
 C         -2.4827035949       -0.0499746023       -3.7436814301
 C         -3.5137203035       -0.9107375656       -3.3980266933
 C         -3.8886536152       -1.0512739653       -2.0778247116
 C         -3.2344389986       -0.3330630970       -1.0723157044
 N         -3.6307592303       -0.4608539015        0.2469587985
 C         -4.6426103695       -1.4076012512        0.5704353592
 C         -4.2929961059       -2.7332243417        0.7970417877
 C         -5.2722359530       -3.6584329095        1.1112040598
 C         -6.5983917975       -3.2652085428        1.2008112668
 C         -6.9464867063       -1.9425908270        0.9731978097
 C         -5.9733711026       -1.0122200814        0.6573035685
 C         -3.1426074328        0.3700053971        1.2390587095
 C         -3.6819924933        0.3275305258        2.5283526163
 C         -3.2182073943        1.1764781350        3.5118733817
 C         -2.2059195936        2.0827123213        3.2326911115
 C         -1.6495434803        2.1125469558        1.9675254098
 C         -2.0995931277        1.2670914748        0.9649491641
 C          3.4866348624       -2.6629944358       -1.3273272060
 C          3.7536655096       -3.9655023001       -1.6999454511
 H          4.9126496572       -5.7267357223       -1.3192849196
 H          6.1227107473       -4.7223610482        0.5859986989
 H          5.6380363589       -2.4142518798        1.2813211380
 H          3.6078036288        0.9929646906        2.0764194745
 H          5.3772226874        2.4578259266        2.9607301957
 H          7.6635764878        2.3419258122        2.0314073958
 H          8.1657273202        0.7511463224        0.2109144248
 H          6.3972782470       -0.7073825488       -0.6807947100
 H          1.7088757654       -2.1957491770        0.6329668630
 H         -0.6357871652       -1.4239627171        0.4054673052
 H          3.1697235934        1.6696124302       -0.5636458817
 H          2.1694986472        3.9964374949       -1.2651512887
 H          0.7505513143        5.9284052408       -1.8387291416
 H         -1.6996477442        5.7636073175       -1.7584524886
 H         -2.7981760950        3.6418715549       -1.0884177852
 H         -1.0173837069        1.3257384583       -3.0086241768
 H         -2.1908559919        0.0639784518       -4.7763670984
 H         -4.0317305957       -1.4729415455       -4.1604599784
 H         -4.6987932076       -1.7156140137       -1.8189157986
 H         -3.2567020471       -3.0283087205        0.7234307258
 H         -4.9994967297       -4.6879265523        1.2875983932
 H         -7.3602477308       -3.9886777608        1.4475194658
 H         -7.9794239399       -1.6351612575        1.0406534599
 H         -6.2314293503        0.0209389673        0.4772503815
 H         -4.4699194866       -0.3737594612        2.7558321560
 H         -3.6502357176        1.1309400355        4.5003654166
 H         -1.8470817176        2.7522218513        3.9992412388
 H         -0.8475529062        2.7992434554        1.7431001311
 H          2.7646314314       -2.0724101154       -1.8700073318
 H          3.2230892346       -4.3980029430       -2.5351938339
