  126
       -186.54286684
 C          4.7632847932        9.9704389394        3.2573647100
 C          4.0075215182        9.0531684235        2.3433035417
 C          3.7931238026        7.7238475272        2.7246269290
 C          3.0974283313        6.8347584477        1.9310776451
 C          2.6124236526        7.2956158640        0.7144205977
 C          2.7911201126        8.6431487457        0.3227709064
 C          3.4948561688        9.5145450790        1.1409444947
 C          2.1205807162        8.7880929611       -0.9405668496
 C          1.9399982071        9.8489260021       -1.8162306817
 C          1.2220296507        9.6498959819       -2.9847831993
 C          1.0081186287       10.7707367409       -3.9576119870
 C          0.6969749686        8.3840938263       -3.2709029645
 C          0.8619150242        7.3106964542       -2.4200479173
 C          1.5713782537        7.5208485853       -1.2453060080
 N          1.8879544980        6.6308857227       -0.2459725324
 C          1.5162895496        5.2731714729       -0.2157462867
 C          0.1618505593        4.9436996053       -0.1514291292
 C         -0.2357551984        3.6290560649       -0.1149590793
 C          0.7222234288        2.6068148543       -0.1410129601
 C          0.3214795708        1.2220802421       -0.0905817861
 N          1.2651594238        0.2750222312       -0.1116102056
 C          0.8692097727       -0.9997268836       -0.0381604037
 C          1.8672807618       -2.0412678077       -0.0397031615
 C          1.4930194499       -3.3890556978        0.0415740553
 C          2.4558248268       -4.3693059469        0.0529494343
 C          3.8085166064       -4.0344888133       -0.0171544738
 N          4.7699742268       -5.0629585368        0.0084038672
 C          5.7059533763       -5.2709508620        0.9929686709
 C          5.8991799979       -4.5861250381        2.1855234706
 C          6.9151410593       -5.0139347554        3.0150264897
 C          7.7310036488       -6.1049230509        2.6928930766
 C          8.8202234589       -6.5113749365        3.6396806348
 C          7.5147467182       -6.8008193405        1.5141875703
 C          6.4999131402       -6.3932809799        0.6604979653
 C          5.9953662204       -6.8869832427       -0.5918334318
 C          6.3471002762       -7.9429607821       -1.4200726322
 C          5.6389898821       -8.1505660727       -2.5931531230
 C          5.9851488845       -9.2836907224       -3.5119252449
 C          4.5861753397       -7.2917472389       -2.9308667556
 C          4.2153113299       -6.2328392282       -2.1280949347
 C          4.9220059118       -6.0378990946       -0.9490239723
 C          4.2044618658       -2.6937962764       -0.1328001391
 C          5.6512507579       -2.3325503798       -0.2888128590
 C          3.2270745645       -1.7196799597       -0.1335979130
 N         -0.4210112086       -1.3420294335        0.0391705802
 C         -1.3285340950       -0.3606393096        0.0292286696
 C         -2.7283459144       -0.7052066966        0.0865875858
 C         -3.1316115516       -2.0454936347        0.1486276521
 C         -4.4683678271       -2.3579068277        0.2087037635
 C         -5.4324386089       -1.3492784548        0.2075140586
 N         -6.7934175927       -1.7047134639        0.2739766608
 C         -7.4777272805       -2.4185767550       -0.6814231108
 C         -7.0267809774       -2.9285736254       -1.8914614351
 C         -7.9349552203       -3.6012305027       -2.6826573698
 C         -9.2718549647       -3.7715319846       -2.3035466697
 C        -10.2029466776       -4.5166609146       -3.2123233918
 C         -9.7175049709       -3.2495788888       -1.0995605036
 C         -8.8260488373       -2.5700507243       -0.2820083019
 C         -8.9435908009       -1.9188130676        0.9942444063
 C         -9.9890122731       -1.7419313525        1.8887078013
 C         -9.7579018642       -1.0719064393        3.0797948789
 C        -10.8612750171       -0.8687679352        4.0743583184
 C         -8.4733245145       -0.5996064687        3.3727643297
 C         -7.4151087471       -0.7602449915        2.5020345705
 C         -7.6603020216       -1.4071192097        1.2980396024
 C         -5.0525133606       -0.0021616575        0.1154862159
 C         -6.0846178614        1.0823764587        0.0355495766
 C         -3.7061794863        0.2969041856        0.0650641702
 N         -0.9816860770        0.9290364661       -0.0272430656
 C          2.0772023545        2.9502722705       -0.2274457634
 C          2.4908492982        4.2659683734       -0.2747701094
 C          3.9426218398        4.6099391598       -0.4231198324
 H          5.0600775780       10.8785704575        2.7389402306
 H          5.6540652735        9.4797785349        3.6450868855
 H          4.1408983058       10.2502210031        4.1078862321
 H          4.1822958134        7.3890497385        3.6754103668
 H          2.9205809593        5.8189233706        2.2511298539
 H          3.6384029107       10.5430367392        0.8439601859
 H          2.3562678881       10.8190934361       -1.5879405434
 H          1.3808186054       11.7102237380       -3.5574231078
 H          1.5273469740       10.5636559482       -4.8935207949
 H         -0.0513031159       10.8829345660       -4.1843442023
 H          0.1455555319        8.2487882393       -4.1900954254
 H          0.4552335383        6.3389702022       -2.6562664702
 H         -0.5660744239        5.7418626934       -0.1194278219
 H         -1.2790563138        3.3626622790       -0.0580723153
 H          0.4449126444       -3.6348721036        0.1026441679
 H          2.1816675681       -5.4119403527        0.1279303653
 H          5.2634192569       -3.7576980982        2.4598768032
 H          7.0880075977       -4.4969780175        3.9480165888
 H          9.5271723431       -5.6940689518        3.7792649022
 H          8.4033833011       -6.7588563333        4.6154203696
 H          9.3603767821       -7.3763786337        3.2637540842
 H          8.1253059993       -7.6557694954        1.2634293197
 H          7.1655916808       -8.5947019971       -1.1518586970
 H          5.1361374888       -9.9580574428       -3.6196254988
 H          6.8308953216       -9.8499534987       -3.1306564462
 H          6.2366854247       -8.9073079054       -4.5028474686
 H          4.0509626088       -7.4678514498       -3.8527551378
 H          3.4049980231       -5.5751579486       -2.4043577559
 H          5.7466488756       -1.3266612331       -0.6894015965
 H          6.1503430316       -3.0291907442       -0.9609511001
 H          6.1699237720       -2.3702693406        0.6688751543
 H          3.4976216952       -0.6785166290       -0.2212253238
 H         -2.3771937460       -2.8158984310        0.1548472271
 H         -4.7928231881       -3.3870033909        0.2682809188
 H         -6.0001085740       -2.8001268843       -2.1994917426
 H         -7.6095308195       -4.0112368661       -3.6278124668
 H        -11.2051132973       -4.5588540624       -2.7937129467
 H         -9.8481229989       -5.5351281580       -3.3673089844
 H        -10.2530266130       -4.0316880345       -4.1866467089
 H        -10.7481895848       -3.3683907796       -0.7992448415
 H        -10.9716905216       -2.1272474278        1.6596548934
 H        -10.6943421192       -1.4896227108        4.9547688525
 H        -11.8247105204       -1.1331547904        3.6463742378
 H        -10.8961480379        0.1687633340        4.4023545288
 H         -8.3093173717       -0.0977778044        4.3155350271
 H         -6.4251633275       -0.4101408943        2.7532989795
 H         -6.4986842793        1.3020348532        1.0193531467
 H         -5.6428784226        1.9933107398       -0.3598762473
 H         -6.9093367220        0.7809555217       -0.6087399164
 H         -3.3800541275        1.3231444464       -0.0086659999
 H          2.8015421426        2.1513492871       -0.2714247827
 H          4.4950225237        3.7535956762       -0.8010569262
 H          4.3759061152        4.9006458232        0.5335344436
 H          4.0717682484        5.4447620750       -1.1102198792
