  55
        -92.47104218
 O          6.6585925978       -0.8120347719       -1.2175755404
 C          5.6672910536       -0.3251097576       -0.6599106910
 C          5.6092895940        1.0671946145       -0.2298744146
 C          6.7362641425        1.8729491686       -0.4508897181
 C          6.7357555073        3.1940845490       -0.0780775629
 C          5.6068230668        3.7512578071        0.5269389269
 C          4.4940799268        2.9798018076        0.7507727750
 C          4.4759952965        1.6256844255        0.3816804552
 C          3.2698035302        0.8582909341        0.6514567790
 O          2.2532676870        1.3518624865        1.1584350379
 C          3.3454224548       -0.5418105607        0.2614662676
 C          2.2333147187       -1.3501209754        0.5194485136
 C          2.2215780101       -2.6658018832        0.1191574957
 S          0.8197390398       -3.7016411740        0.4581011273
 C         -0.5334858698       -2.5821480176        0.2638825122
 C         -1.6443479742       -2.7405749170        1.0873872491
 C         -2.7146004097       -1.8782951302        0.9796379666
 C         -2.6890312814       -0.8436380283        0.0438510298
 N         -3.7479387404        0.0584839447       -0.0463286584
 C         -5.0910646148       -0.2633775737       -0.1037732980
 C         -5.7019644819       -1.5090729033       -0.1367336174
 C         -7.0811552120       -1.5486385277       -0.2297762846
 C         -7.8382708963       -0.3827302417       -0.3011615142
 C         -7.2325515223        0.8606659601       -0.2989447449
 C         -5.8508508985        0.9249870731       -0.2042161895
 C         -4.9104589221        2.0144606600       -0.1966023171
 C         -5.0505972338        3.3932059668       -0.2447806336
 C         -3.9113483764        4.1752481530       -0.1849121003
 C         -2.6510315556        3.5977109856       -0.0578111912
 C         -2.4864839714        2.2255893143       -0.0077066571
 C         -3.6244025737        1.4358881220       -0.1003736896
 C         -1.5874802866       -0.7133231417       -0.8043621946
 C         -0.5221393397       -1.5795845323       -0.7017746246
 C          3.3466319584       -3.2334525025       -0.5003420087
 C          4.4539296467       -2.4593430428       -0.7232529724
 C          4.4734128268       -1.0989837424       -0.3701008842
 H          7.5935501336        1.4161409395       -0.9228967075
 H          7.6099116960        3.8035030267       -0.2538296486
 H          5.6095501286        4.7907114699        0.8204092403
 H          3.6072440671        3.3824689431        1.2176679426
 H          1.3945625729       -0.9004200378        1.0307491314
 H         -1.6488204382       -3.5270289782        1.8260599243
 H         -3.5566577596       -1.9745056803        1.6476594287
 H         -5.1239883293       -2.4199574970       -0.1057925090
 H         -7.5804229560       -2.5055895999       -0.2523274433
 H         -8.9131023250       -0.4545277651       -0.3707306533
 H         -7.8189554568        1.7634485974       -0.3747470421
 H         -6.0290504354        3.8421994135       -0.3208637468
 H         -3.9982338684        5.2505530922       -0.2238601146
 H         -1.7810834220        4.2328475053        0.0096437856
 H         -1.5056184024        1.7937758347        0.1174985365
 H         -1.5850576364        0.0569302704       -1.5601088161
 H          0.3194687836       -1.4794097469       -1.3700846992
 H          3.3253353522       -4.2707338216       -0.7959819280
 H          5.3363218438       -2.8639194373       -1.1965934676
