83
 energy: -135.683642760497 gnorm: 0.000070368276 xtb: 6.7.1 (edcfbbe)
O           -0.77390150325564       -2.73903172538774       -2.22977035939847
P           -0.44701548912139       -2.49540636576419       -0.81834251775047
C           -1.90210737033471       -2.38785038219271        0.27419328241859
C           -1.83082521634838       -1.97270002250406        1.59647286390061
C           -2.96064508953983       -2.01856700866929        2.39098960275452
C           -4.15997675674290       -2.48243983810206        1.87152127004659
C           -4.23370319707478       -2.88905521539373        0.54952286347992
C           -3.10329593676124       -2.84645604484853       -0.24571277533777
C            0.46553359611929       -3.89081334137399       -0.07801834567831
C            0.50089907030455       -5.06636709522203       -0.81365365981850
C            1.13895917643557       -6.18516142932247       -0.30787420306179
C            1.73968147374799       -6.12939765361493        0.93842445109494
C            1.70446415328766       -4.95578589689518        1.67606720255638
C            1.06721569076642       -3.83733569327109        1.17297074964733
C            0.63217600389397       -1.05121906116220       -0.52310118128022
C            1.99152071910622       -1.30417918390600       -0.62539220132365
C            2.94255380523912       -0.31509182381832       -0.39842161015145
N            4.25047677199543       -0.53036485581658       -0.48755101795431
C            5.14537646592742        0.41608735253517       -0.25630909834502
C            4.68170007870415        1.73771319563405        0.11436863473318
N            3.37933456428664        1.95464796619819        0.20822404860802
C            2.47745959962473        1.00879520160968       -0.03064086589351
C            1.10773722804503        1.23611439018528        0.04276005899232
C            0.17561728575296        0.23679909380894       -0.21510179875821
C           -1.25379794944834        0.55388241070436       -0.18862663316732
C           -1.80548375569777        1.31621031805576        0.83998754309074
C           -3.14977045680887        1.61712376886274        0.85453670154345
C           -3.98620760354425        1.16608642994550       -0.16887717650152
N           -5.34859935489784        1.47254266503635       -0.16158427937730
C           -6.01947027579155        1.70397790819934       -1.36925038802321
C           -5.39638217770317        2.40554579053039       -2.40135622912384
C           -6.06391132211313        2.63115025688180       -3.58914504016392
C           -7.35858183821913        2.16997896630566       -3.76525122151804
C           -7.98271601661351        1.47523517270299       -2.74183353499739
C           -7.32154125018368        1.23876692538423       -1.55243023451059
C           -6.04924491804889        1.55272971336324        1.04545118668383
C           -5.74303255665303        0.68912681792164        2.09749143764996
C           -6.43660101302808        0.77184712896993        3.28858090261082
C           -7.44566421052495        1.70756843748141        3.45089733231319
C           -7.75491653785942        2.56599534650333        2.40819436647638
C           -7.06376726821890        2.49581266730957        1.21447962391057
C           -3.43369931028563        0.41530403455084       -1.20753306311503
C           -2.08798217344670        0.11799001860787       -1.21669512044094
C            5.64737374776574        2.72188259985778        0.35720300447568
S            5.29397382618173        4.36346296789031        0.81303434444647
C            6.98274534061540        4.72635564807783        0.86721885789969
C            7.77235638830495        3.67145395993355        0.55924315786258
C            7.02849692243402        2.50029106820209        0.26035519006859
C            7.48053717266063        1.21187610834166       -0.10115269537935
C            8.80497574289425        0.72937776523041       -0.26660106756589
C            8.84341002859576       -0.57626686115172       -0.62025462470111
S            7.28020003277452       -1.29682553974354       -0.77343969117719
C            6.52808942544816        0.21261241664648       -0.34647256519759
H           -0.89863736820346       -1.60344882275518        1.99812747787503
H           -2.90808556650858       -1.69379255036736        3.42038296702342
H           -5.03807424182674       -2.52922278416385        2.49972793065675
H           -5.17005842800164       -3.24348990748064        0.14391173709604
H           -3.13222256150520       -3.15947712260701       -1.27955981104518
H            0.03184567869706       -5.08014587936104       -1.78703559277155
H            1.16961467740333       -7.09808931921726       -0.88443916992778
H            2.24037480035638       -6.99975128959302        1.33670822233326
H            2.17867473786126       -4.91392759857892        2.64593234591488
H            1.05136728473207       -2.91937097387661        1.74219222537840
H            2.33935191883383       -2.29413716537225       -0.88590763676257
H            0.77765433614275        2.23672338219330        0.27664645607312
H           -1.17307752806274        1.66585437089995        1.64290786793892
H           -3.56226297926230        2.21354750354174        1.65505497795058
H           -4.39117458855170        2.77468552158588       -2.26096575766950
H           -5.57222657767711        3.17803315650099       -4.37980745601646
H           -7.87754536152327        2.35037509084838       -4.69416256051504
H           -8.98934145397086        1.10691175925386       -2.87342015512604
H           -7.80462700385253        0.68736959601419       -0.75905851177747
H           -4.96524757371788       -0.04803233801967        1.96511470663653
H           -6.19236504623709        0.09514868130776        4.09430095364442
H           -7.98683870745973        1.76775048182298        4.38275665375863
H           -8.53540359859143        3.30271969743098        2.52794096853488
H           -7.29916331347637        3.17436052968803        0.40777184596237
H           -4.06909029333940        0.06087906675116       -2.00520938766540
H           -1.67106469701210       -0.44255778399354       -2.03946080289141
H            7.28666061153847        5.72067024799393        1.12969082240605
H            8.84625985527994        3.71438189115468        0.54227649601954
H            9.68092638552851        1.33633254100796       -0.12622758123421
H            9.70892385651418       -1.18125217920774       -0.80695925690519
