83
 energy: -135.683644571883 gnorm: 0.000077633979 xtb: 6.7.1 (edcfbbe)
O           -0.76463384422268       -2.70642666941748       -2.27340803834942
P           -0.44645923204067       -2.48894744780409       -0.85576598023209
C           -1.90867383542591       -2.40162591835730        0.22878705326733
C           -1.84378586114319       -2.02063075993127        1.56163660840058
C           -2.97889364696913       -2.08080731502134        2.34756001546239
C           -4.17699097668110       -2.52566199725328        1.80893451898212
C           -4.24415905520645       -2.89853496233594        0.47666545210187
C           -3.10856130511996       -2.84113320782005       -0.31021203138690
C            0.46148303058948       -3.89699685545746       -0.13358822877169
C            0.48485199741974       -5.06600078206094       -0.88007594583948
C            1.11821513263050       -6.19360490183090       -0.38813752185029
C            1.72648737754018       -6.15323811445510        0.85510222810540
C            1.70330896072874       -4.98623557447711        1.60357352934918
C            1.07047543163032       -3.85909631400627        1.11443293111929
C            0.63153694457137       -1.05114458404957       -0.52798812276859
C            1.99093405849387       -1.30106163449314       -0.63689209937956
C            2.94142018390157       -0.31644065868383       -0.38919844407493
N            4.24931078575834       -0.52803881299618       -0.48681078615671
C            5.14362626602547        0.41467815557214       -0.23862081076769
C            4.67954181571423        1.72710548074814        0.16273067097086
N            3.37723889943301        1.93967945025290        0.26723533578721
C            2.47583763073780        0.99828005952974        0.00975996891066
C            1.10601357567038        1.22266940198516        0.09051755280703
C            0.17452318995932        0.22909718950678       -0.19056545888455
C           -1.25473932818965        0.54694687381992       -0.16244324783361
C           -1.81092565143448        1.28392341362622        0.88198809412454
C           -3.15381866720685        1.59129060806044        0.89366524988961
C           -3.98324566347851        1.17402249355987       -0.14945146164480
N           -5.34345060440844        1.49144394735035       -0.14758830495657
C           -5.99645686468188        1.77223230605341       -1.35443690260596
C           -5.35240391006483        2.50186489396229       -2.35373443556548
C           -6.00283006061603        2.77799704499304       -3.54033542197718
C           -7.30082620240059        2.33979282050420       -3.74777848020561
C           -7.94536242610260        1.61638704067996       -2.75739079230640
C           -7.30148575556533        1.32945560062432       -1.56961958653280
C           -6.05713384367342        1.53610226122085        1.05339360299421
C           -5.76716344841752        0.63618495305764        2.07931683219306
C           -6.47380500326013        0.68266682776760        3.26464803110775
C           -7.48006115047260        1.61772440350906        3.44693979600061
C           -7.77273342024588        2.51262337117408        2.43043556791027
C           -7.06829072476470        2.47894686000532        1.24294083210383
C           -3.42660848468893        0.44670938478654       -1.20243620515635
C           -2.08269757197951        0.14111437349188       -1.20771255775285
C            5.64475102416370        2.70778787814503        0.42114213781314
S            5.29098587365250        4.33908844449352        0.91212685382313
C            6.97937323914849        4.70421033581943        0.96373991978273
C            7.76912072542277        3.65727827317790        0.63003271697493
C            7.02571825074026        2.49091688499201        0.31188667134903
C            7.47814404257197        1.21121880336964       -0.07887664278788
C            8.80247522328870        0.73486309631001       -0.26206754364303
C            8.84118576978325       -0.56286615044992       -0.64372274299945
S            7.27842761877376       -1.28296834352341       -0.80339900457453
C            6.52616056747386        0.21556867723049       -0.34007936756285
H           -0.91208783634341       -1.66729609703233        1.97839923981276
H           -2.93149649337007       -1.78243735392776        3.38513921944432
H           -5.05922505438309       -2.58442420839522        2.43029617514181
H           -5.17950080501108       -3.23833787815394        0.05645558852702
H           -3.13224343171630       -3.12804531940984       -1.35173353161913
H            0.01070963202179       -5.06771636072240       -1.85109729147614
H            1.13942587997854       -7.10146033123909       -0.97307966483077
H            2.22365286909416       -7.03049127041203        1.24253013164389
H            2.18350102941368       -4.95627636754350        2.57093761617087
H            1.06434461229968       -2.94622425428159        1.69204802959211
H            2.33891962318275       -2.28463131158053       -0.92044300259717
H            0.77518278578926        2.21727231694832        0.34782627292979
H           -1.18319277076810        1.60877619211555        1.69887471717728
H           -3.57037163080659        2.16770900188813        1.70665558889219
H           -4.34458815082766        2.85324388391047       -2.18862580769952
H           -5.49512717927100        3.34659856192443       -4.30513196558801
H           -7.80654336146230        2.56009130666327       -4.67538785873171
H           -8.95463095542026        1.26541332469142       -2.91380159116782
H           -7.80065248261824        0.75596330444662       -0.80230657906149
H           -4.99161085981649       -0.10031812676970        1.93102765853958
H           -6.24209255820931       -0.02193520534943        4.04988365858513
H           -8.03178744348894        1.64929329370769        4.37400228460415
H           -8.55070815061639        3.24923558527374        2.56615385284340
H           -7.29074407978170        3.18588779426328        0.45722662890449
H           -4.05739544236992        0.11813223397512       -2.01472907252104
H           -1.66172978142493       -0.40149638128887       -2.04049720736137
H            7.28291413651705        5.69369359666086        1.24428425880068
H            8.84282210274120        3.70267869410635        0.60759305326820
H            9.67818808681408        1.34026672564868       -0.11376574443227
H            9.70665452669931       -1.16212823763149       -0.84823234814310
