83
 energy: -135.724261712224 gnorm: 0.000032627681 xtb: 6.7.1 (edcfbbe)
O            0.17077038213959       -2.80411678606118       -2.11306394592018
P            0.53960638772388       -2.46689819819075       -0.73225880206886
C           -0.85666721114803       -2.41002030219646        0.43524299167058
C           -0.79300863784760       -1.79513885663926        1.67780173313996
C           -1.87089777983160       -1.87723699756125        2.53899103591100
C           -3.00003814448199       -2.59399125800326        2.17564694506665
C           -3.05656285129547       -3.22399758205531        0.94305486172550
C           -1.98697457709969       -3.12630739980444        0.07103700644426
C            1.60156515042284       -3.74219563651375        0.02295839618382
C            1.81631232212509       -4.89645086684190       -0.71555570812017
C            2.58212012699557       -5.92353532043464       -0.19246970850183
C            3.12992932600541       -5.79708358033736        1.07287647774855
C            2.91288086692817       -4.64530541199880        1.81417773816847
C            2.14811177563584       -3.61850094151628        1.29413061692721
C            1.51830987654368       -0.92655125731764       -0.56235664967880
C            2.87236462718001       -1.07816461640224       -0.68854233338417
C            3.73971714103067        0.02458937398637       -0.54889274396605
N            5.06062150763099       -0.14238624975753       -0.67309351021742
C            5.83004185907543        0.91922598964097       -0.51779882400052
C            5.26458603528706        2.21473704284701       -0.21496344493313
N            3.96186672128379        2.37998966426526       -0.08432917764876
C            3.17824911129228        1.30595749594304       -0.25002468325157
C            1.78084691387470        1.43586239668789       -0.14888973747286
C            0.95009772315399        0.35484786530973       -0.32453407584254
C           -0.50263002126132        0.54004211280657       -0.28988280752729
C           -1.30880101717398       -0.00032143294804       -1.28985323511534
C           -2.66893326468640        0.22305353757822       -1.29624998058351
C           -3.27106613244462        0.97856819188526       -0.28800132639891
N           -4.64178627825491        1.22691226064878       -0.29697345417528
C           -5.53618944986182        0.28958828377754       -0.83044047571321
C           -6.64818216496256        0.71036594075321       -1.55899000712297
C           -7.53287324790550       -0.21713152934687       -2.07408367317297
C           -7.32089770632123       -1.57229055204139       -1.88068134831873
C           -6.21517349262636       -1.99406357758614       -1.16081627130912
C           -5.32992672664493       -1.07456395408264       -0.63307995316984
C           -5.14127759456454        2.43921851016147        0.20069912148900
C           -4.46841734661086        3.63717252055246       -0.03653884878328
C           -4.97076181750399        4.82589427210178        0.45616495790478
C           -6.15055747380752        4.84230084165635        1.18208647752880
C           -6.82604180125236        3.65555278582156        1.41504986522457
C           -6.32724918569139        2.46075122914394        0.93348159890004
C           -2.46553196276591        1.50067714684557        0.72737317754534
C           -1.10357293746709        1.29884984431274        0.71333270842555
C            6.15565793015534        3.30672575047962       -0.05917348055150
S            5.68080382626706        4.93056780441567        0.30365119454243
C            7.32820181503761        5.43268274397843        0.28273943922262
C            8.19631527302050        4.42559928636620        0.01500934541569
C            7.53691566644425        3.18732184239021       -0.18596396350794
C            8.09456600586176        1.90848496844679       -0.48518085128389
C            9.45272856714898        1.54339690568542       -0.66020261689600
C            9.59832174913287        0.22356787154151       -0.93630689396835
S            8.10514119596006       -0.63357112574782       -0.99691666752917
C            7.23918624271988        0.82090413346944       -0.63991173188520
H            0.08847468614622       -1.23917116467640        1.96288268016920
H           -1.83026621318729       -1.38595361508503        3.50019362275882
H           -3.83759710383243       -2.66031828203349        2.85464816531811
H           -3.93179562013892       -3.79369501352034        0.66616482292075
H           -2.01247797646815       -3.59340469047308       -0.90317240252198
H            1.38110374547045       -4.96639091613332       -1.70216261671060
H            2.75253510136719       -6.82020092406238       -0.77011293484916
H            3.72908383765158       -6.59596708774541        1.48468424371172
H            3.34330652865259       -4.54950158056903        2.80044676139101
H            1.98317897407138       -2.71800064765506        1.86752561048990
H            3.30804500593818       -2.04762858898491       -0.88766490582721
H            1.37772794079335        2.41996395330758        0.03663706544648
H           -0.85764572319011       -0.55778070932686       -2.09631773297241
H           -3.27379697137312       -0.17569282449116       -2.09662329554929
H           -6.81034832037137        1.76610528722738       -1.72029656909798
H           -8.38925993308222        0.12124088528257       -2.63860100156832
H           -8.01210695048903       -2.29402191597962       -2.28867219218470
H           -6.04431704588418       -3.04882374062703       -1.00287913734033
H           -4.47310064661450       -1.40312197768072       -0.06393002725126
H           -3.55470095967302        3.62773484412937       -0.61254682014873
H           -4.44155109171134        5.74749413326418        0.26339401527634
H           -6.54158720861374        5.77373176826956        1.56238453304426
H           -7.74490968948585        3.65856868626990        1.98275759261102
H           -6.85114623878191        1.53482239264545        1.12104576941610
H           -2.91892682050506        2.07024994709807        1.52520411575221
H           -0.49584377091420        1.70935039593616        1.50680624381242
H            7.55960901592551        6.46238410864135        0.47324097421110
H            9.26220745306341        4.55204450013703       -0.03882293324043
H           10.27309400869437        2.23340570972928       -0.58337480505095
H           10.51119268401337       -0.31100611297558       -1.11232259915528
