  69
       -100.97357198
 C         -6.5177769369       -4.4398263547        0.6295602022
 C         -5.5652425746       -3.3003050680        0.4526380419
 C         -5.6550245685       -2.4488652143       -0.6415013089
 C         -4.7732285449       -1.3964616308       -0.8128265929
 C         -4.8927105318       -0.5304806395       -2.0283758239
 C         -3.7687669271       -1.1431379933        0.1450024029
 B         -2.8161635631        0.0959096442       -0.0005117721
 C         -1.2986113926       -0.1392301521       -0.0450747386
 C         -0.7581887235       -1.4101843588       -0.3488206348
 C          0.5898734135       -1.6247751929       -0.3979696260
 C          1.4981435671       -0.5784892480       -0.1288702224
 C          2.8941982944       -0.8014065278       -0.1725192109
 N          3.3698114097       -2.0511315267       -0.4823235562
 C          4.6604402561       -2.1789275941       -0.5089096301
 Cl         5.2714142859       -3.7336320588       -0.8984041417
 N          5.5634062062       -1.2509335415       -0.2693016897
 C          5.0459897358       -0.0302793037        0.0393359877
 C          5.9761921716        1.0480620491        0.3232114860
 C          7.3524301322        0.8214138328        0.2604838114
 C          8.2348490997        1.8477910387        0.5311579779
 C          7.7593743012        3.1065536570        0.8667593422
 C          6.3926913431        3.3373582131        0.9309314127
 C          5.5030118843        2.3180339576        0.6615068399
 N          3.7576455400        0.1912253221        0.0850500216
 C          0.9716409056        0.6936330479        0.1837861436
 C         -0.3779302468        0.9017781269        0.2150543211
 C         -3.3614791461        1.5646488027       -0.1054241761
 C         -3.0602764572        2.3795845985       -1.2139638043
 C         -2.1522471599        1.9151594417       -2.3141814859
 C         -3.6227572092        3.6417780135       -1.3251282664
 C         -4.4631887027        4.1537333652       -0.3469790787
 C         -5.0591249107        5.5205081057       -0.4679089060
 C         -4.7435208327        3.3584423709        0.7596315873
 C         -4.2010804994        2.0946830108        0.8978904846
 C         -4.5132198886        1.2923076991        2.1231379434
 C         -3.6664064353       -2.0198971430        1.2439306385
 C         -2.6091047499       -1.8494745718        2.2946370266
 C         -4.5650531958       -3.0632091103        1.3880848621
 H         -5.9969216567       -5.3265581211        0.9855909173
 H         -7.2738862751       -4.1788494021        1.3713122823
 H         -7.0237173740       -4.6756959080       -0.3033813073
 H         -6.4249111320       -2.6195850713       -1.3813759935
 H         -5.7480321462       -0.8247150315       -2.6318488510
 H         -5.0058265752        0.5139281480       -1.7417897670
 H         -3.9945595107       -0.6080457134       -2.6394228091
 H         -1.4354061110       -2.2239443584       -0.5672350115
 H          0.9916903556       -2.5962222243       -0.6436931707
 H          7.7025976822       -0.1644742454       -0.0020353557
 H          9.2991358252        1.6697835250        0.4815041876
 H          8.4524681921        3.9074630267        1.0784684062
 H          6.0242131842        4.3185179049        1.1928750447
 H          4.4373708425        2.4812344953        0.7070854800
 H          1.6628461908        1.4955349439        0.3962622222
 H         -0.7591620950        1.8824887454        0.4635719770
 H         -2.0810103895        0.8321049661       -2.3421554413
 H         -1.1470644533        2.3069118043       -2.1571806543
 H         -2.5055920483        2.2788899375       -3.2774562144
 H         -3.3933780219        4.2432061570       -2.1941787143
 H         -6.1268230020        5.4436664233       -0.6762553418
 H         -4.5917560482        6.0819560191       -1.2728880442
 H         -4.9436712612        6.0737373161        0.4626982478
 H         -5.3949415604        3.7440878534        1.5318331634
 H         -4.9533752322        0.3350542668        1.8481459392
 H         -5.2059945232        1.8253920182        2.7694625556
 H         -3.6033008798        1.0859562539        2.6848892258
 H         -1.7726300405       -2.5182453746        2.0915083968
 H         -2.2211791530       -0.8360227394        2.3095087458
 H         -3.0053914482       -2.0993751783        3.2769391572
 H         -4.4824100389       -3.7144567159        2.2474565002
  69
       -100.97349206
 C         -6.4294740249       -4.4810909963        0.7554211103
 C         -5.5197954822       -3.3099579273        0.5620212350
 C         -5.6543739607       -2.4656574976       -0.5332219490
 C         -4.7908582369       -1.4042140345       -0.7378295603
 C         -4.9635253391       -0.5399320566       -1.9483333079
 C         -3.7575504585       -1.1354720936        0.1847778996
 B         -2.8200884474        0.1086453479        0.0022022047
 C         -1.3011354756       -0.1140287058       -0.0633490754
 C         -0.7608081442       -1.3774816339       -0.3962851665
 C          0.5872719783       -1.5876580524       -0.4588476505
 C          1.4954412187       -0.5467767748       -0.1689718075
 C          2.8907664171       -0.7735568139       -0.2200928283
 N          3.3563849012       -2.0135351547       -0.5819536150
 C          4.6458271396       -2.1506717688       -0.6135048625
 Cl         5.2439062418       -3.6903885740       -1.0756914455
 N          5.5555735582       -1.2425435805       -0.3289069370
 C          5.0479869506       -0.0328211646        0.0343018570
 C          5.9885949986        1.0183154679        0.3786972146
 C          7.3621725858        0.7745550200        0.3211336081
 C          8.2560241675        1.7723907294        0.6537092908
 C          7.7946685715        3.0200425108        1.0459581916
 C          6.4307693232        3.2680768527        1.1046420953
 C          5.5297089608        2.2770111515        0.7742630721
 N          3.7614555059        0.1995321147        0.0819884770
 C          0.9689641913        0.7179361898        0.1716872440
 C         -0.3813590954        0.9238070557        0.2085582480
 C         -3.3785233890        1.5707994042       -0.1224186869
 C         -3.0838949097        2.3719273002       -1.2437941676
 C         -2.1671793374        1.9004753715       -2.3339091051
 C         -3.6629154648        3.6224214210       -1.3756489228
 C         -4.5160868110        4.1390271978       -0.4072764000
 C         -5.1162150006        5.4991509185       -0.5748092523
 C         -4.7894839646        3.3594548836        0.7086510035
 C         -4.2271480259        2.1046660265        0.8693037291
 C         -4.5309238509        1.3198173718        2.1078071350
 C         -3.6112982917       -2.0045465126        1.2859937111
 C         -2.5238557981       -1.8109857692        2.3009011250
 C         -4.4924208856       -3.0570802831        1.4637541316
 H         -6.6936210660       -4.5944706415        1.8052338223
 H         -7.3388647775       -4.3716912452        0.1696063216
 H         -5.9287095827       -5.3970251044        0.4392078603
 H         -6.4474371709       -2.6481584502       -1.2453475990
 H         -5.8087776840       -0.8736457259       -2.5460899518
 H         -5.1276986630        0.4964772835       -1.6546629260
 H         -4.0676332412       -0.5671065536       -2.5671707913
 H         -1.4378798619       -2.1880627714       -0.6273809387
 H          0.9897304096       -2.5524491099       -0.7286167299
 H          7.7015682192       -0.2023189713        0.0141660947
 H          9.3180941279        1.5805567978        0.6086473364
 H          8.4965684736        3.7987095395        1.3062521376
 H          6.0730025587        4.2404163519        1.4109701714
 H          4.4659752711        2.4533936975        0.8163154080
 H          1.6591893948        1.5166570932        0.3987050476
 H         -0.7631432371        1.8996489973        0.4757093324
 H         -2.4967180691        2.2811960982       -3.2986780780
 H         -2.1173120936        0.8165477311       -2.3725283422
 H         -1.1565843328        2.2685485480       -2.1556858922
 H         -3.4415861954        4.2156899876       -2.2524065238
 H         -5.6089261861        5.8254972802        0.3375285392
 H         -5.8531880306        5.4847635792       -1.3785395602
 H         -4.3507531528        6.2257321512       -0.8425173851
 H         -5.4488964460        3.7448827171        1.4740920679
 H         -3.6206891951        1.1411613069        2.6780948074
 H         -4.9520498603        0.3492870265        1.8486434245
 H         -5.2373416041        1.8518059478        2.7406021784
 H         -2.2051733384       -0.7740640151        2.3502493468
 H         -2.8598248232       -2.1327250293        3.2849973027
 H         -1.6528424585       -2.4085464906        2.0315020670
 H         -4.3754911328       -3.7026523043        2.3234621970
  69
       -100.97342669
 C         -6.4128905454       -4.4591046395        0.8838250215
 C         -5.5049157095       -3.2948480040        0.6450072293
 C         -5.6722413318       -2.4636685758       -0.4556354421
 C         -4.8119424343       -1.4081896332       -0.7016847467
 C         -5.0215424842       -0.5597709128       -1.9175848255
 C         -3.7478838189       -1.1319635812        0.1829121132
 B         -2.8164946829        0.1104597889       -0.0389649995
 C         -1.2988610525       -0.1094555072       -0.1388620799
 C         -0.7594383011       -1.3741673434       -0.4683411541
 C          0.5885180011       -1.5853796548       -0.5325930070
 C          1.4971223941       -0.5440676973       -0.2460378919
 C          2.8928340449       -0.7734884907       -0.2771438509
 N          3.3646097881       -2.0115137275       -0.6360854864
 C          4.6544552534       -2.1491993217       -0.6426124146
 Cl         5.2615064988       -3.6854776604       -1.1045231836
 N          5.5590875653       -1.2446903991       -0.3309971862
 C          5.0449270494       -0.0378085772        0.0325334619
 C          5.9767251515        1.0068483122        0.4179574685
 C          7.3514097376        0.7636943711        0.3933968074
 C          8.2353857275        1.7544237665        0.7706564765
 C          7.7631567461        2.9940597629        1.1750619121
 C          6.3980824273        3.2415623436        1.2003522575
 C          5.5068380526        2.2576913457        0.8250924785
 N          3.7580170081        0.1965193926        0.0498885171
 C          0.9714622853        0.7253415538        0.0781569601
 C         -0.3785404480        0.9328069379        0.1140188061
 C         -3.3799872849        1.5718250281       -0.1523639992
 C         -3.1323279220        2.3623474819       -1.2910790430
 C         -2.2559453543        1.8809403981       -2.4091048819
 C         -3.7199534117        3.6120039295       -1.4130227363
 C         -4.5312242979        4.1356869693       -0.4166018751
 C         -5.1406490937        5.4964130183       -0.5393201437
 C         -4.7535945250        3.3667139599        0.7213789402
 C         -4.1851921876        2.1156782227        0.8709562103
 C         -4.4338138507        1.3415838690        2.1283903238
 C         -3.5678492989       -1.9888746179        1.2887226847
 C         -2.4465212175       -1.7898014127        2.2651699848
 C         -4.4469198805       -3.0351384540        1.5085532834
 H         -7.3386295302       -4.3550722066        0.3232408215
 H         -5.9249257191       -5.3819453078        0.5676356275
 H         -6.6462946739       -4.5546712990        1.9425454135
 H         -6.4886947125       -2.6513763947       -1.1394160516
 H         -5.1449681405        0.4849474244       -1.6355568799
 H         -4.1580883877       -0.6212374113       -2.5783168979
 H         -5.9022851162       -0.8815851731       -2.4679675198
 H         -1.4375136468       -2.1863535417       -0.6896857077
 H          0.9899127180       -2.5520962443       -0.7961727986
 H          7.6992215342       -0.2069871573        0.0765873264
 H          9.2983976212        1.5630982710        0.7514133590
 H          8.4573183622        3.7667873165        1.4715942364
 H          6.0317241897        4.2072524540        1.5172712934
 H          4.4423490670        2.4334950345        0.8417707941
 H          1.6628789180        1.5259533590        0.2948819438
 H         -0.7594107312        1.9116790965        0.3710169002
 H         -2.2187009525        0.7962118155       -2.4468210443
 H         -1.2364765375        2.2383087607       -2.2629015972
 H         -2.6114769683        2.2634762589       -3.3639556459
 H         -3.5351443708        4.1937470716       -2.3058093839
 H         -4.7358278808        6.1610773907        0.2236753324
 H         -6.2186141686        5.4441793043       -0.3918397627
 H         -4.9403572743        5.9288145041       -1.5161372911
 H         -5.3805394463        3.7627971811        1.5084427020
 H         -5.1022456922        1.8841093630        2.7925585416
 H         -3.4974456898        1.1581934660        2.6529065220
 H         -4.8759982934        0.3736530566        1.8973152502
 H         -1.5872167196       -2.3941293473        1.9729965672
 H         -2.1219920779       -0.7535807379        2.2936286931
 H         -2.7517661682       -2.1002382861        3.2627644371
 H         -4.3039930052       -3.6711761026        2.3713368929
  69
       -100.97339666
 C         -6.6039112786       -4.4361952205        0.2978181051
 C         -5.6304279421       -3.3019750149        0.2395886570
 C         -5.6428310134       -2.4207147714       -0.8375751594
 C         -4.7421775044       -1.3766415850       -0.9279956838
 C         -4.7796794502       -0.4771367660       -2.1243966580
 C         -3.7942386760       -1.1606621882        0.0959754434
 B         -2.8197822465        0.0690705260        0.0355385705
 C         -1.3040788912       -0.1796869601        0.0576460381
 C         -0.7586323317       -1.4545394191       -0.2208228693
 C          0.5899471689       -1.6704356928       -0.2441827286
 C          1.4945800264       -0.6183651494        0.0150173089
 C          2.8917070554       -0.8301412627       -0.0414453775
 N          3.3773756488       -2.0888308138       -0.2919457301
 C          4.6687544322       -2.2027447937       -0.3393469664
 Cl         5.2923648098       -3.7707173057       -0.6430142897
 N          5.5636753883       -1.2491219253       -0.1830651172
 C          5.0363365400       -0.0172615442        0.0543445632
 C          5.9557404478        1.0961101311        0.2104235540
 C          7.3337406456        0.8831474354        0.1410154448
 C          8.2048631088        1.9450473630        0.2797188911
 C          7.7162846232        3.2262462897        0.4868361069
 C          6.3476897640        3.4436039290        0.5566244498
 C          5.4692578920        2.3885412331        0.4201522026
 N          3.7469394069        0.1880331714        0.1315853168
 C          0.9629823175        0.6537549374        0.3190753233
 C         -0.3867158558        0.8600136385        0.3374065084
 C         -3.3380726145        1.5485628370       -0.0586601861
 C         -2.9689740961        2.3901034448       -1.1268562361
 C         -2.0329276800        1.9358913765       -2.2082357309
 C         -3.4876107781        3.6714618372       -1.2157896385
 C         -4.3526527901        4.1774967114       -0.2540267251
 C         -4.8937417455        5.5677073671       -0.3644396717
 C         -4.7080814090        3.3529878515        0.8068234479
 C         -4.2090782839        2.0680667465        0.9225267895
 C         -4.6005117908        1.2342405556        2.1030552391
 C         -3.7704559472       -2.0647910159        1.1753431268
 C         -2.7811667964       -1.9348205277        2.2957639075
 C         -4.6894414359       -3.1009947964        1.2389723646
 H         -6.5137978282       -5.0594083959       -0.5912971318
 H         -6.4346869954       -5.0538456785        1.1761450560
 H         -7.6244783140       -4.0547629313        0.3302186237
 H         -6.3698839269       -2.5649296454       -1.6249443629
 H         -4.9034799565        0.5600842722       -1.8168783096
 H         -3.8461860199       -0.5462178390       -2.6807229845
 H         -5.5980368138       -0.7479719312       -2.7869890520
 H         -1.4318676275       -2.2701531805       -0.4437951456
 H          0.9953002934       -2.6448534313       -0.4712955123
 H          7.6944891281       -0.1201819619       -0.0227728729
 H          9.2705793599        1.7776960091        0.2250078535
 H          8.4007153025        4.0550540123        0.5943206864
 H          5.9686986232        4.4422405921        0.7186603083
 H          4.4022083894        2.5411151310        0.4703274833
 H          1.6509362722        1.4568346014        0.5379420599
 H         -0.7712596562        1.8395925744        0.5848046484
 H         -2.3637661976        2.3081735785       -3.1764572312
 H         -1.9600729947        0.8533739183       -2.2446672413
 H         -1.0325586216        2.3280098932       -2.0240994761
 H         -3.2040920847        4.2961412199       -2.0519085648
 H         -5.1499728144        5.9653323664        0.6148034880
 H         -5.7983853304        5.5648721132       -0.9743996801
 H         -4.1725630543        6.2288122532       -0.8398797152
 H         -5.3813392486        3.7296847811        1.5646353343
 H         -5.3155461044        1.7613716758        2.7302590881
 H         -3.7253540584        0.9907098473        2.7037874363
 H         -5.0448037728        0.2957779256        1.7744033062
 H         -3.2590122592       -2.1491820785        3.2505713531
 H         -1.9701660321       -2.6508686217        2.1604862769
 H         -2.3424036352       -0.9422078581        2.3268736818
 H         -4.6637847027       -3.7724674995        2.0862980434
  69
       -100.97336783
 C         -6.6090965993       -4.4343135023        0.2737699236
 C         -5.6495107588       -3.2879023440        0.2280704151
 C         -5.6468217737       -2.4055899119       -0.8466670534
 C         -4.7379001588       -1.3668659276       -0.9273441265
 C         -4.7619393427       -0.4645137294       -2.1219035850
 C         -3.7968552365       -1.1584467316        0.1043099473
 B         -2.8154289590        0.0658518995        0.0512998503
 C         -1.3001803350       -0.1844093697        0.0779936526
 C         -0.7555203280       -1.4610252251       -0.1941720124
 C          0.5931197623       -1.6763373746       -0.2221915841
 C          1.4983881625       -0.6222872515        0.0266614694
 C          2.8953950788       -0.8322567550       -0.0369931849
 N          3.3818257948       -2.0898744313       -0.2923137025
 C          4.6730897045       -2.1999531782       -0.3508045476
 Cl         5.2979876863       -3.7665774940       -0.6616525438
 N          5.5673792906       -1.2449318148       -0.2006589454
 C          5.0393445643       -0.0151246718        0.0468155736
 C          5.9577209028        1.0986125409        0.2056739360
 C          7.3353478267        0.8899863198        0.1175910975
 C          8.2055398527        1.9521801599        0.2594218430
 C          7.7163855856        3.2293444387        0.4892738475
 C          6.3482234230        3.4423715798        0.5781721302
 C          5.4707662112        2.3871058162        0.4379371249
 N          3.7500611423        0.1867372055        0.1334854246
 C          0.9675360043        0.6510297742        0.3274610597
 C         -0.3820291406        0.8567559013        0.3501562486
 C         -3.3302582436        1.5467156711       -0.0490929665
 C         -2.9629875853        2.3817478203       -1.1224282308
 C         -2.0203881976        1.9270921584       -2.1979223733
 C         -3.4908856500        3.6589862346       -1.2234101722
 C         -4.3618472595        4.1665830493       -0.2686669968
 C         -4.9186505276        5.5494628474       -0.3919180459
 C         -4.7104200626        3.3500472452        0.8011726595
 C         -4.2023840380        2.0701515367        0.9289345468
 C         -4.5857474213        1.2438924105        2.1174179069
 C         -3.7881812982       -2.0651989489        1.1820408193
 C         -2.8101099886       -1.9424896784        2.3135429300
 C         -4.7137196018       -3.0951517824        1.2355657940
 H         -6.7966361124       -4.7452284437        1.2988751142
 H         -7.5530043818       -4.1687991363       -0.1975271033
 H         -6.1940906255       -5.2866617636       -0.2662093115
 H         -6.3675783561       -2.5418728236       -1.6412108455
 H         -4.8962681592        0.5712132558       -1.8133188352
 H         -3.8196027552       -0.5265752203       -2.6638963268
 H         -5.5688573887       -0.7374309507       -2.7977487842
 H         -1.4295192943       -2.2784080433       -0.4082599603
 H          0.9978871738       -2.6519988999       -0.4457289712
 H          7.6964985668       -0.1102610480       -0.0631011321
 H          9.2709230811        1.7880552523        0.1898575271
 H          8.3999130960        4.0586130938        0.5984273233
 H          5.9687909091        4.4380534790        0.7568759013
 H          4.4041323585        2.5365647340        0.5029217287
 H          1.6561542392        1.4555579738        0.5389372249
 H         -0.7659564211        1.8375422474        0.5934306567
 H         -2.3596597810        2.2772358573       -3.1714387184
 H         -1.9266067112        0.8458079144       -2.2170659650
 H         -1.0276287879        2.3416600496       -2.0221648834
 H         -3.2097177395        4.2777115839       -2.0646894477
 H         -4.2440479522        6.1929706208       -0.9518798633
 H         -5.0961976491        5.9861716044        0.5883101608
 H         -5.8717348821        5.5175606665       -0.9221334832
 H         -5.3861593335        3.7297762838        1.5552028335
 H         -5.2912503524        1.7778298596        2.7495267856
 H         -3.7056111467        0.9980157525        2.7095903828
 H         -5.0389934013        0.3067442527        1.7974214250
 H         -3.3087845366       -2.1166412444        3.2658256134
 H         -2.0240476199       -2.6903083788        2.2081826287
 H         -2.3376287864       -0.9653384723        2.3282360905
 H         -4.7004286864       -3.7688816613        2.0814151118
  69
       -100.97301532
 C         -6.5445012682       -4.5030590368        0.0703912885
 C         -5.6017024730       -3.3417868532        0.0585260984
 C         -5.5916418750       -2.4322172520       -0.9918391070
 C         -4.7098955341       -1.3666809271       -1.0168699959
 C         -4.7201430011       -0.4353177270       -2.1890717296
 C         -3.8066140555       -1.1591367571        0.0478588276
 B         -2.8306826404        0.0712959204        0.0267353392
 C         -1.3152763519       -0.1814163749        0.0701620004
 C         -0.7694345175       -1.4680213579       -0.1508348006
 C          0.5784809691       -1.6887005157       -0.1478891968
 C          1.4835550337       -0.6280150385        0.0713918720
 C          2.8806048506       -0.8423183289        0.0359217727
 N          3.3706236740       -2.1143903827       -0.1255620517
 C          4.6625612278       -2.2271884642       -0.1572823909
 Cl         5.2919257211       -3.8122320509       -0.3387982889
 N          5.5545789767       -1.2624412679       -0.0690360484
 C          5.0231991031       -0.0170876698        0.0735145001
 C          5.9367833598        1.1097865188        0.1327203206
 C          7.3149146008        0.9013220532        0.0514445376
 C          8.1794885330        1.9769669949        0.0847953672
 C          7.6843055399        3.2673025461        0.1994614146
 C          6.3157564862        3.4800124170        0.2841772277
 C          5.4438269099        2.4115168264        0.2516188079
 N          3.7332194249        0.1870798770        0.1387046336
 C          0.9523299927        0.6577308712        0.3129727549
 C         -0.3966134661        0.8668449991        0.3151017495
 C         -3.3388703412        1.5559315195       -0.0489554841
 C         -2.9625104645        2.4183615540       -1.0961600580
 C         -2.0587164190        1.9783786087       -2.2112613568
 C         -3.4494089997        3.7154360201       -1.1419454353
 C         -4.2910684447        4.2144186722       -0.1573522211
 C         -4.7937267398        5.6222525444       -0.2128726715
 C         -4.6609692487        3.3654702466        0.8798408176
 C         -4.1929800295        2.0663639596        0.9524097171
 C         -4.5957329472        1.2059184079        2.1097808002
 C         -3.8156314280       -2.0846236993        1.1091628436
 C         -2.9005681628       -1.9533505807        2.2920729026
 C         -4.7108014399       -3.1420169190        1.1056725296
 H         -6.0477467928       -5.3993191365        0.4370084613
 H         -7.3840020137       -4.2933654984        0.7346846979
 H         -6.9382879745       -4.6972633863       -0.9242741955
 H         -6.2792957113       -2.5692304367       -1.8151638984
 H         -4.8991925596        0.5869879572       -1.8586021513
 H         -3.7575489483       -0.4527524025       -2.6971616364
 H         -5.4936046680       -0.7154711919       -2.9002550271
 H         -1.4422724800       -2.2916673929       -0.3424552370
 H          0.9830345621       -2.6736718319       -0.3259462910
 H          7.6806377744       -0.1093518124       -0.0401596295
 H          9.2452005639        1.8130949193        0.0192093065
 H          8.3633900636        4.1070045650        0.2222539295
 H          5.9316379526        4.4858687491        0.3732109518
 H          4.3767587673        2.5605175540        0.3111011984
 H          1.6406218060        1.4685056677        0.4998968439
 H         -0.7800452499        1.8568796648        0.5170069637
 H         -2.5109999918        2.2134538127       -3.1742382759
 H         -1.8514393695        0.9143157481       -2.1642322314
 H         -1.1090262875        2.5098360351       -2.1538132088
 H         -3.1556892749        4.3561162397       -1.9623625291
 H         -4.1026429177        6.2613416533       -0.7576424782
 H         -4.9364751631        6.0235581489        0.7881181039
 H         -5.7561582927        5.6516384190       -0.7259428013
 H         -5.3187311433        3.7359074252        1.6541154731
 H         -5.3018490371        1.7262983766        2.7525701996
 H         -3.7232484199        0.9326913169        2.7011895308
 H         -5.0545452478        0.2843257018        1.7549928296
 H         -3.4814878024       -1.9452554081        3.2142188931
 H         -2.2226898360       -2.8052645450        2.3366310258
 H         -2.3047471274       -1.0479988731        2.2388185227
 H         -4.7084288336       -3.8340818810        1.9367490607
  69
       -100.97286182
 C         -6.3704184970       -4.5510355453        0.0612525255
 C         -5.4620728480       -3.3627685407        0.0588392682
 C         -5.4678757925       -2.4681651508       -1.0064481650
 C         -4.6277411483       -1.3708560322       -1.0332489589
 C         -4.6454470843       -0.4610858549       -2.2223752513
 C         -3.7509180883       -1.1152370655        0.0428679165
 B         -2.8214886462        0.1525177468        0.0232964041
 C         -1.3015999156       -0.0697301975        0.0397397480
 C         -0.7567143915       -1.3567861979       -0.1866452943
 C          0.5894339942       -1.5781025320       -0.1779812946
 C          1.4980748128       -0.5211418975        0.0474233757
 C          2.8901614758       -0.7701420561        0.0316449082
 N          3.3263675906       -2.0651907166       -0.1084308102
 C          4.6111365656       -2.2384366155       -0.1190772066
 Cl         5.1697889656       -3.8531248600       -0.2703295870
 N          5.5425808122       -1.3127997654       -0.0295201838
 C          5.0653377360       -0.0432879538        0.0889246732
 C          6.0387499556        1.0329420157        0.1453107533
 C          7.4031951815        0.7399320601        0.0930751151
 C          8.3316988326        1.7606147331        0.1221816326
 C          7.9142496840        3.0805923500        0.2035496795
 C          6.5600153271        3.3774298221        0.2595821925
 C          5.6241476465        2.3638146782        0.2315068482
 N          3.7848877869        0.2228720537        0.1339981797
 C          0.9698401470        0.7682506386        0.2753671817
 C         -0.3807173713        0.9781717642        0.2745894164
 C         -3.4051676310        1.6107138847       -0.0363300864
 C         -3.1032610086        2.4905804782       -1.0926821999
 C         -2.1615069202        2.1198201262       -2.2013910064
 C         -3.7081516392        3.7366110996       -1.1585334316
 C         -4.5957729917        4.1702627585       -0.1838185924
 C         -5.2387769418        5.5184241099       -0.2681499732
 C         -4.8803340144        3.3101658213        0.8704588813
 C         -4.2955978809        2.0605705484        0.9627878930
 C         -4.6217655633        1.1883160107        2.1351447822
 C         -3.7334795995       -2.0318252190        1.1114872489
 C         -2.8107349233       -1.8692872956        2.2839313736
 C         -4.5925671642       -3.1197126036        1.1130022248
 H         -6.0021856824       -5.3229348820        0.7326805078
 H         -7.3659043699       -4.2558307146        0.3960600456
 H         -6.4663124869       -4.9663363420       -0.9399268563
 H         -6.1358012185       -2.6453303474       -1.8382391620
 H         -3.6777525287       -0.4729957860       -2.7215876139
 H         -5.4068168138       -0.7688991771       -2.9350811463
 H         -4.8445911074        0.5639166719       -1.9140033119
 H         -1.4295102667       -2.1786994211       -0.3843694424
 H          0.9935305043       -2.5636983282       -0.3543260853
 H          7.7077508441       -0.2927651555        0.0270012469
 H          9.3861846026        1.5302554273        0.0786555932
 H          8.6430381136        3.8776746170        0.2213929853
 H          6.2372823447        4.4066640049        0.3207788148
 H          4.5672889519        2.5789496096        0.2663845024
 H          1.6578035033        1.5803649599        0.4577234333
 H         -0.7629361869        1.9706873184        0.4679935693
 H         -1.2548688967        2.7211350750       -2.1369028920
 H         -2.6226393323        2.3205830097       -3.1678510019
 H         -1.8760386168        1.0742030533       -2.1522111851
 H         -3.4752758043        4.3878029854       -1.9900728954
 H         -5.4284583318        5.9214414445        0.7242868492
 H         -6.1960408253        5.4387289360       -0.7856816423
 H         -4.6140917999        6.2150769917       -0.8223391610
 H         -5.5674262649        3.6314952808        1.6412226727
 H         -5.0497715976        0.2454639260        1.7972364795
 H         -5.3319442081        1.6784040023        2.7969080218
 H         -3.7214095426        0.9575967705        2.7014470643
 H         -2.0336225227       -2.6329103023        2.2522464010
 H         -2.3245436340       -0.8989912338        2.2789600920
 H         -3.3591591197       -1.9935876482        3.2168067297
 H         -4.5706918570       -3.8032727076        1.9507589005
