  69
  -100.503618275800       0.218043477383661      !
 C         -6.6491773291       -4.3717725540        0.2370936865
 C         -5.6641158928       -3.2469446963        0.1931368073
 C         -5.6655589527       -2.3537453354       -0.8742188782
 C         -4.7541791881       -1.3179570432       -0.9514909385
 C         -4.7803122397       -0.4049410581       -2.1379181301
 C         -3.8060052857       -1.1229744027        0.0764682107
 B         -2.8189964709        0.0973696829        0.0313637836
 C         -1.3059420485       -0.1670311496        0.0533683892
 C         -0.7729556663       -1.4442116048       -0.2382499831
 C          0.5734023556       -1.6735511100       -0.2616384747
 C          1.4881909297       -0.6336733414        0.0107835977
 C          2.8831974354       -0.8590211862       -0.0455749876
 N          3.3565211005       -2.1197414400       -0.3091521967
 C          4.6467622043       -2.2462621020       -0.3555510140
 Cl         5.2549776599       -3.8170463881       -0.6754763656
 N          5.5510311575       -1.3035838612       -0.1871482118
 C          5.0357913233       -0.0691208530        0.0629689817
 C          5.9661650415        1.0330412043        0.2329814177
 C          7.3420578082        0.8068447497        0.1636315867
 C          8.2236621843        1.8582244431        0.3156148509
 C          7.7477382845        3.1419609238        0.5360559023
 C          6.3812942904        3.3724518921        0.6058510973
 C          5.4924461903        2.3279583790        0.4561618316
 N          3.7484044068        0.1484200564        0.1402211743
 C          0.9689772152        0.6403511040        0.3279834506
 C         -0.3785879474        0.8601211236        0.3462348657
 C         -3.3220548461        1.5830118315       -0.0473476327
 C         -2.9424368501        2.4325139127       -1.1055080663
 C         -2.0090389814        1.9807850319       -2.1902119636
 C         -3.4478639934        3.7199898178       -1.1811498824
 C         -4.3095119031        4.2241358092       -0.2153566451
 C         -4.8362443626        5.6209177469       -0.3113101661
 C         -4.6752740288        3.3916056571        0.8356709787
 C         -4.1895654749        2.1004712235        0.9380072047
 C         -4.5916482511        1.2576677243        2.1085393188
 C         -3.7934195833       -2.0391799605        1.1457942260
 C         -2.8049509959       -1.9316840233        2.2693166125
 C         -4.7230004828       -3.0666168649        1.1963317566
 H         -6.5637423482       -4.9859997375       -0.6587114439
 H         -6.4878730926       -5.0007890959        1.1088197400
 H         -7.6658756997       -3.9803542511        0.2719303615
 H         -6.3925706699       -2.4818363497       -1.6644092266
 H         -4.8941430718        0.6300220092       -1.8191461535
 H         -3.8465335363       -0.4773630563       -2.6933400850
 H         -5.6001422948       -0.6600886712       -2.8049020266
 H         -1.4540245880       -2.2504151293       -0.4714220404
 H          0.9692589048       -2.6494728479       -0.4988212212
 H          7.6929003936       -0.1982317005       -0.0106290498
 H          9.2877235924        1.6806500950        0.2609195886
 H          8.4403512447        3.9625201571        0.6539132852
 H          6.0121656164        4.3730411942        0.7782754570
 H          4.4269099442        2.4908206715        0.5061555912
 H          1.6646443398        1.4339175425        0.5569371543
 H         -0.7536216588        1.8407673399        0.6037953045
 H         -2.3342737728        2.3671001059       -3.1548279651
 H         -1.9471165844        0.8980512261       -2.2385051296
 H         -1.0050832656        2.3606410422       -1.9999918895
 H         -3.1564566585        4.3509596531       -2.0097999121
 H         -5.0902476107        6.0102762644        0.6718273937
 H         -5.7397317604        5.6340359370       -0.9228473287
 H         -4.1075025310        6.2798656610       -0.7781341152
 H         -5.3460817292        3.7667318245        1.5964291125
 H         -5.3024586696        1.7850806967        2.7402909006
 H         -3.7201305408        0.9986135606        2.7080685144
 H         -5.0448370292        0.3274677209        1.7687342993
 H         -3.2867278875       -2.1517170832        3.2208526855
 H         -2.0010150485       -2.6544096272        2.1275356409
 H         -2.3561861738       -0.9439932871        2.3121883482
 H         -4.7057450953       -3.7476454848        2.0362108761
  69
  -100.503575598300       0.208415434722810      !
 C         -6.5637027121       -4.3799487167        0.5689255251
 C         -5.5993140843       -3.2482945263        0.4063054374
 C         -5.6784032218       -2.3839368842       -0.6784905456
 C         -4.7856445392       -1.3387324721       -0.8366030189
 C         -4.8940581122       -0.4581903665       -2.0426921752
 C         -3.7804482514       -1.1062536330        0.1257308133
 B         -2.8150381620        0.1245676211       -0.0043806465
 C         -1.2998724441       -0.1254985647       -0.0488881955
 C         -0.7718229786       -1.3984505346       -0.3657475815
 C          0.5740790296       -1.6261942784       -0.4149100282
 C          1.4924274966       -0.5922469532       -0.1326469216
 C          2.8862247049       -0.8288654996       -0.1763179081
 N          3.3496950116       -2.0798640218       -0.4991136840
 C          4.6390064113       -2.2204877665       -0.5248537391
 Cl         5.2348809213       -3.7769277221       -0.9304760327
 N          5.5509043006       -1.3044388375       -0.2733999003
 C          5.0453397393       -0.0820694124        0.0478340502
 C          5.9859174030        0.9835430615        0.3452658194
 C          7.3598965580        0.7436066891        0.2824413166
 C          8.2521900482        1.7578932242        0.5660132817
 C          7.7889017796        3.0176416463        0.9147048101
 C          6.4245166461        3.2616206638        0.9790363912
 C          5.5250323674        2.2544463610        0.6967793561
 N          3.7592291198        0.1520175152        0.0937429139
 C          0.9782925560        0.6816327536        0.1931596885
 C         -0.3691505403        0.9031445741        0.2243684011
 C         -3.3452095759        1.5998513797       -0.0939714772
 C         -3.0336788566        2.4238888656       -1.1928865563
 C         -2.1283652504        1.9624415432       -2.2965896509
 C         -3.5831009805        3.6928940614       -1.2910471075
 C         -4.4201100815        4.2025281567       -0.3087599477
 C         -5.0019053327        5.5765513733       -0.4155853400
 C         -4.7105682067        3.3979421635        0.7884804507
 C         -4.1812518338        2.1272755336        0.9136812940
 C         -4.5038085804        1.3146177486        2.1294168509
 C         -3.6890474070       -1.9961086968        1.2150569329
 C         -2.6320290746       -1.8480865074        2.2694365122
 C         -4.5985129376       -3.0317505250        1.3460712594
 H         -6.0525462120       -5.2758189972        0.9160231937
 H         -7.3185030557       -4.1195085793        1.3121979016
 H         -7.0702734871       -4.6003246660       -0.3674560867
 H         -6.4486040567       -2.5386191679       -1.4215579747
 H         -5.7511983147       -0.7370121428       -2.6508843538
 H         -4.9970930273        0.5840823823       -1.7447528425
 H         -3.9956041350       -0.5381305302       -2.6529872159
 H         -1.4568634433       -2.2028103827       -0.5943484639
 H          0.9664644452       -2.5989038356       -0.6706756496
 H          7.7005199436       -0.2428308481        0.0096307169
 H          9.3147043361        1.5696225413        0.5162544025
 H          8.4896998594        3.8090648781        1.1364862505
 H          6.0655366693        4.2435230804        1.2511870501
 H          4.4610210197        2.4279705920        0.7422969465
 H          1.6772107836        1.4740591395        0.4157157828
 H         -0.7408630668        1.8848762550        0.4830666210
 H         -2.0680818989        0.8790937153       -2.3364345756
 H         -1.1195492920        2.3421825393       -2.1334989204
 H         -2.4762013001        2.3403802420       -3.2563933333
 H         -3.3460050800        4.3015305119       -2.1529789548
 H         -6.0699387648        5.5128896078       -0.6266395114
 H         -4.5273579771        6.1420812622       -1.2134760456
 H         -4.8825724053        6.1182513558        0.5212938200
 H         -5.3594758768        3.7816344765        1.5637647349
 H         -4.9531518216        0.3649935340        1.8430674750
 H         -5.1923356681        1.8475452290        2.7803929181
 H         -3.5970811316        1.0928159376        2.6904403041
 H         -1.8020138448       -2.5230490679        2.0603771269
 H         -2.2338571579       -0.8388619557        2.2962130377
 H         -3.0326637999       -2.1047887861        3.2482146756
 H         -4.5240911667       -3.6932695616        2.1983194109
  69
  -100.503543956700       0.201552600544498      !
 C         -6.4759938094       -4.4237556777        0.6934433590
 C         -5.5541236275       -3.2598132699        0.5149365889
 C         -5.6781423146       -2.4017856040       -0.5708442842
 C         -4.8035258846       -1.3469229615       -0.7618856693
 C         -4.9652198652       -0.4672177186       -1.9627563246
 C         -3.7692130085       -1.0992169275        0.1654709590
 B         -2.8188394149        0.1372956159       -0.0013339491
 C         -1.3021094359       -0.1000588598       -0.0668462295
 C         -0.7740363320       -1.3650747137       -0.4132377041
 C          0.5719513650       -1.5882287603       -0.4759082636
 C          1.4901159537       -0.5600040544       -0.1726576248
 C          2.8831569505       -0.8003705263       -0.2239966405
 N          3.3368158196       -2.0408255654       -0.5991699524
 C          4.6248542281       -2.1907045040       -0.6300985873
 Cl         5.2081049178       -3.7310695618       -1.1087811666
 N          5.5432576412       -1.2951734487       -0.3336350460
 C          5.0473232605       -0.0845592134        0.0424704966
 C          5.9979304597        0.9529695970        0.4004087636
 C          7.3690642539        0.6959191988        0.3423973520
 C          8.2723976946        1.6807633604        0.6878304282
 C          7.8230244401        2.9285019691        1.0934844636
 C          6.4616098361        3.1897145672        1.1526811650
 C          5.5511327601        2.2116879753        0.8095095178
 N          3.7631330268        0.1603121821        0.0906229808
 C          0.9758912440        0.7060429587        0.1814940957
 C         -0.3723367510        0.9252069694        0.2184220370
 C         -3.3621743527        1.6063775904       -0.1102363479
 C         -3.0573999699        2.4171687576       -1.2219130429
 C         -2.1435483430        1.9488444085       -2.3157742985
 C         -3.6234552840        3.6749071234       -1.3404947041
 C         -4.4730874683        4.1891182563       -0.3677458774
 C         -5.0590717280        5.5570939574       -0.5207902006
 C         -4.7564029528        3.3997261436        0.7387645812
 C         -4.2071270494        2.1375357420        0.8860651392
 C         -4.5210948249        1.3417828458        2.1150319464
 C         -3.6337835798       -1.9822023799        1.2569616215
 C         -2.5462690808       -1.8112692406        2.2758473233
 C         -4.5258669352       -3.0276719169        1.4212292837
 H         -6.7431763969       -4.5463748408        1.7414478148
 H         -7.3831661085       -4.2984550541        0.1073742620
 H         -5.9839834463       -5.3410809028        0.3676652589
 H         -6.4717284446       -2.5680984984       -1.2863440186
 H         -5.8127344098       -0.7854955699       -2.5657054526
 H         -5.1193930824        0.5674010521       -1.6575775046
 H         -4.0685322037       -0.4964644987       -2.5803458312
 H         -1.4588837950       -2.1660455039       -0.6546976239
 H          0.9650809211       -2.5539334298       -0.7559682094
 H          7.6990789594       -0.2808024095        0.0248970542
 H          9.3325450180        1.4786601274        0.6423840458
 H          8.5323219482        3.6969777171        1.3638191121
 H          6.1131800950        4.1620963682        1.4694593181
 H          4.4891703638        2.3983927755        0.8517676572
 H          1.6737784535        1.4950674688        0.4187634817
 H         -0.7446761852        1.9017806978        0.4960250385
 H         -2.4674594926        2.3438456996       -3.2767002924
 H         -2.1046188033        0.8649749059       -2.3666536583
 H         -1.1295924052        2.3045672527       -2.1316595121
 H         -3.3945289307        4.2758267063       -2.2100615550
 H         -5.5500932508        5.8780382652        0.3943705073
 H         -5.7946981809        5.5593463594       -1.3258785801
 H         -4.2857896357        6.2788484898       -0.7789083383
 H         -5.4132514182        3.7831115471        1.5074291272
 H         -3.6137537333        1.1474019809        2.6847874819
 H         -4.9515833630        0.3785970309        1.8441171992
 H         -5.2232181860        1.8736987200        2.7526491848
 H         -2.2171651581       -0.7782713274        2.3375433571
 H         -2.8872664235       -2.1407457232        3.2556445901
 H         -1.6808817885       -2.4145570137        2.0011336484
 H         -4.4170524474       -3.6841359693        2.2737245121
  69
  -100.503418987500       0.176586109411129      !
 C         -6.6542670850       -4.3696170458        0.2131208600
 C         -5.6830107886       -3.2325902177        0.1817652689
 C         -5.6693327293       -2.3385820615       -0.8831785851
 C         -4.7497646771       -1.3083303483       -0.9507863690
 C         -4.7623831499       -0.3926948282       -2.1353715455
 C         -3.8086075799       -1.1208525316        0.0847760973
 B         -2.8147076804        0.0939113420        0.0470074880
 C         -1.3021302814       -0.1720245938        0.0736410097
 C         -0.7699406392       -1.4510422288       -0.2116041281
 C          0.5764953830       -1.6797368182       -0.2395922391
 C          1.4919421535       -0.6377483557        0.0224719420
 C          2.8868641053       -0.8612007738       -0.0410040135
 N          3.3609884868       -2.1208155027       -0.3092994357
 C          4.6511770977       -2.2433698356       -0.3666995907
 Cl         5.2607303285       -3.8127538531       -0.6936772289
 N          5.5548274382       -1.2992015942       -0.2044474286
 C          5.0388338634       -0.0668848857        0.0556219458
 C          5.9681640085        1.0356406079        0.2283780595
 C          7.3437668770        0.8139971129        0.1404557236
 C          8.2244243905        1.8656623249        0.2955315191
 C          7.7478231967        3.1451293125        0.5385705404
 C          6.3817277069        3.3710680131        0.6273736203
 C          5.4938726882        2.3263864294        0.4739568630
 N          3.7515038109        0.1471121699        0.1422142035
 C          0.9734719392        0.6375154305        0.3363374670
 C         -0.3739762990        0.8566930483        0.3588942544
 C         -3.3142899869        1.5809487454       -0.0379789818
 C         -2.9365321937        2.4239589354       -1.1013923001
 C         -1.9965614691        1.9715990541       -2.1801501978
 C         -3.4512480907        3.7075332126       -1.1892348084
 C         -4.3188189633        4.2134280518       -0.2305094174
 C         -4.8613241981        5.6031707655       -0.3395071078
 C         -4.6776855586        3.3887604376        0.8296456192
 C         -4.1829083074        2.1024365702        0.9442017477
 C         -4.5768869075        1.2670954463        2.1228239916
 C         -3.8111770307       -2.0394462116        1.1524641146
 C         -2.8340544164       -1.9391435627        2.2869899422
 C         -4.7472204668       -3.0604601049        1.1929885404
 H         -6.8468926722       -4.6898660639        1.2344022959
 H         -7.5945376417       -4.0893492782       -0.2569024656
 H         -6.2469116369       -5.2201502556       -0.3354772526
 H         -6.3899299615       -2.4587800868       -1.6804583254
 H         -4.8867772277        0.6408875507       -1.8156329868
 H         -3.8197006498       -0.4583704185       -2.6763358935
 H         -5.5707486739       -0.6499413040       -2.8156190787
 H         -1.4517941431       -2.2591242224       -0.4358856886
 H          0.9717622585       -2.6569461848       -0.4731451961
 H          7.6950887736       -0.1878230787       -0.0506033360
 H          9.2882167988        1.6914867672        0.2260607359
 H          8.4395240115        3.9661531857        0.6580721032
 H          6.0120824395        4.3685310355        0.8163614770
 H          4.4286895445        2.4859607378        0.5386843926
 H          1.6698184134        1.4326243087        0.5578918067
 H         -0.7483895043        1.8385976232        0.6122765913
 H         -2.3304184225        2.3358622871       -3.1503520959
 H         -1.9137228468        0.8896930259       -2.2110398292
 H         -0.9999801750        2.3740913642       -1.9980674097
 H         -3.1622230723        4.3325838774       -2.0231433623
 H         -4.1791665038        6.2459056093       -0.8911418844
 H         -5.0362852353        6.0308535811        0.6451557282
 H         -5.8136778258        5.5867967810       -0.8717386422
 H         -5.3509622903        3.7670243982        1.5866093085
 H         -5.2781298303        1.8011943209        2.7595201320
 H         -3.7004139744        1.0057820729        2.7138180292
 H         -5.0390142180        0.3381816249        1.7917140434
 H         -3.3362725709       -2.1186794607        3.2364061673
 H         -2.0554242085       -2.6937131437        2.1747963777
 H         -2.3517089655       -0.9670684653        2.3132906275
 H         -4.7423692526       -3.7435538570        2.0313852593
  69
  -100.503184729800       0.137815845309547      !
 C         -6.5901473927       -4.4365396557        0.0081054678
 C         -5.6355479851       -3.2848911843        0.0111394369
 C         -5.6144576909       -2.3634054807       -1.0286222845
 C         -4.7218607266       -1.3067063577       -1.0399553165
 C         -4.7206508145       -0.3618157255       -2.2013250056
 C         -3.8183006833       -1.1206989246        0.0285108564
 B         -2.8298502754        0.0998705456        0.0231385065
 C         -1.3171722980       -0.1687803229        0.0660062811
 C         -0.7840963273       -1.4582522667       -0.1689988086
 C          0.5614940973       -1.6926969167       -0.1665004650
 C          1.4769579111       -0.6439068203        0.0664421681
 C          2.8718095052       -0.8720343352        0.0306778495
 N          3.3491135761       -2.1470924058       -0.1447374388
 C          4.6398863414       -2.2726972138       -0.1757427700
 Cl         5.2533737597       -3.8618806291       -0.3745897432
 N          5.5415371371       -1.3181879088       -0.0749555512
 C          5.0226338051       -0.0692043735        0.0811542618
 C          5.9475504561        1.0475278328        0.1548110902
 C          7.3236208781        0.8259603852        0.0732821768
 C          8.1990513094        1.8922681623        0.1204169540
 C          7.7168480202        3.1861807962        0.2492207488
 C          6.3503967506        3.4118556268        0.3342535028
 C          5.4676825738        2.3527622797        0.2879822572
 N          3.7346934786        0.1473526480        0.1466865644
 C          0.9584546408        0.6443193143        0.3220428264
 C         -0.3882900452        0.8671522120        0.3244834180
 C         -3.3227584479        1.5903906192       -0.0361754527
 C         -2.9358739627        2.4609671782       -1.0727499029
 C         -2.0347383034        2.0246859664       -2.1914512943
 C         -3.4094551750        3.7633858317       -1.1042957645
 C         -4.2476393329        4.2595323152       -0.1153144248
 C         -4.7358347113        5.6729704716       -0.1553387199
 C         -4.6279109304        3.4024854251        0.9114151276
 C         -4.1733036968        2.0979189685        0.9696896754
 C         -4.5867445728        1.2283241345        2.1164048758
 C         -3.8385283390       -2.0582370190        1.0790282389
 C         -2.9241626121       -1.9499762720        2.2648041650
 C         -4.7444174090       -3.1063277070        1.0619152011
 H         -6.1031659914       -5.3419962346        0.3651108250
 H         -7.4285824231       -4.2259720077        0.6734674603
 H         -6.9842215582       -4.6152179850       -0.9893524667
 H         -6.3020883505       -2.4838782215       -1.8545487450
 H         -4.8898305321        0.6583806891       -1.8593377289
 H         -3.7574325932       -0.3832071265       -2.7080790859
 H         -5.4957313228       -0.6258306483       -2.9169065333
 H         -1.4649679234       -2.2727207683       -0.3711795097
 H          0.9562902806       -2.6796246842       -0.3553019151
 H          7.6791816981       -0.1872686774       -0.0294300216
 H          9.2631471356        1.7182954174        0.0546045090
 H          8.4044128912        4.0185887893        0.2827804075
 H          5.9763967864        4.4204851593        0.4343110143
 H          4.4020894484        2.5119497525        0.3475173903
 H          1.6546560181        1.4458145946        0.5194028115
 H         -0.7619540024        1.8586518111        0.5372228824
 H         -2.4829859576        2.2754674193       -3.1523508894
 H         -1.8383918553        0.9580908866       -2.1564042796
 H         -1.0797808098        2.5457238846       -2.1263797577
 H         -3.1078463920        4.4104640534       -1.9167910231
 H         -4.0373620478        6.3112195861       -0.6916034742
 H         -4.8761677632        6.0641286579        0.8500008948
 H         -5.6970541107        5.7180996028       -0.6695367456
 H         -5.2831638179        3.7706529157        1.6888931066
 H         -5.2886007031        1.7484281825        2.7640646690
 H         -3.7180831731        0.9393963547        2.7059764924
 H         -5.0543258236        0.3156199290        1.7502694443
 H         -3.5065171350       -1.9465992839        3.1860740456
 H         -2.2550744684       -2.8092223759        2.3005678886
 H         -2.3190602708       -1.0501985601        2.2229511424
 H         -4.7504910463       -3.8079297439        1.8849373357
  69
  -100.502220649100       4.968649253511358E-002 !
 C         -6.4162564457       -4.4865969540       -0.0030379976
 C         -5.4959159494       -3.3076738939        0.0107426195
 C         -5.4916796215       -2.3992625679       -1.0428024109
 C         -4.6404458798       -1.3102755817       -1.0546457908
 C         -4.6478449412       -0.3849663140       -2.2318308349
 C         -3.7620629030       -1.0775971452        0.0253965025
 B         -2.8198186257        0.1808124531        0.0230725166
 C         -1.3022754344       -0.0570358026        0.0378087098
 C         -0.7702515479       -1.3464956161       -0.2049000528
 C          0.5735768469       -1.5815488181       -0.1980664351
 C          1.4926736303       -0.5368836169        0.0418020822
 C          2.8821797950       -0.7997645701        0.0238705780
 N          3.3053699393       -2.0972374221       -0.1327254458
 C          4.5883268239       -2.2833527181       -0.1446223056
 Cl         5.1307285218       -3.9015180753       -0.3164628963
 N          5.5290195718       -1.3684558600       -0.0422830850
 C          5.0645556403       -0.0958184815        0.0923190585
 C          6.0487703667        0.9696572075        0.1634851674
 C          7.4102239719        0.6635275271        0.1085045327
 C          8.3489946040        1.6742742043        0.1516344905
 C          7.9448667566        2.9972467853        0.2498673409
 C          6.5936587986        3.3070504518        0.3087023921
 C          5.6475951835        2.3034316087        0.2666898400
 N          3.7868274722        0.1827061875        0.1398540970
 C          0.9773219882        0.7547232253        0.2861129564
 C         -0.3710379846        0.9783248082        0.2870129758
 C         -3.3886382499        1.6455066908       -0.0180063993
 C         -3.0768657698        2.5359457340       -1.0625679579
 C         -2.1379025115        2.1701198456       -2.1752757535
 C         -3.6690399296        3.7887995615       -1.1126520928
 C         -4.5531134251        4.2187038268       -0.1330650259
 C         -5.1823472231        5.5743016886       -0.2003268695
 C         -4.8473389966        3.3478828212        0.9096932384
 C         -4.2753786360        2.0913244951        0.9861906718
 C         -4.6114399409        1.2072320747        2.1468273087
 C         -3.7548900894       -2.0081516454        1.0819958090
 C         -2.8316191208       -1.8702616250        2.2571803053
 C         -4.6249571717       -3.0871966958        1.0686634457
 H         -6.0564780205       -5.2708687451        0.6585636723
 H         -7.4090061110       -4.1856944368        0.3348079259
 H         -6.5154372475       -4.8878323090       -1.0096183083
 H         -6.1606044354       -2.5587981334       -1.8773538718
 H         -3.6798643481       -0.4001899410       -2.7303981773
 H         -5.4116419284       -0.6757349754       -2.9490827760
 H         -4.8368753914        0.6379012723       -1.9102858695
 H         -1.4511593959       -2.1588980625       -0.4138432092
 H          0.9678276439       -2.5688130134       -0.3869215811
 H          7.7043609361       -0.3712578325        0.0292192723
 H          9.4011316071        1.4338172025        0.1059363289
 H          8.6816772657        3.7865959165        0.2786652861
 H          6.2813148301        4.3386211317        0.3830514685
 H          4.5929390370        2.5288029883        0.3035401300
 H          1.6733113108        1.5573743613        0.4795737269
 H         -0.7433577171        1.9720637825        0.4930333208
 H         -1.2252778280        2.7613170143       -2.1022484642
 H         -2.5960925816        2.3881168465       -3.1393986331
 H         -1.8630882832        1.1211092946       -2.1395004266
 H         -3.4288173282        4.4483679878       -1.9354537087
 H         -5.3688434805        5.9662657281        0.7971279845
 H         -6.1398954977        5.5110657541       -0.7196023362
 H         -4.5501287556        6.2717393976       -0.7449027334
 H         -5.5318452090        3.6661018030        1.6840401434
 H         -5.0486677101        0.2732496139        1.7963278352
 H         -5.3172217363        1.6958400482        2.8143637031
 H         -3.7139863615        0.9600380717        2.7107801473
 H         -2.0622550516       -2.6412504225        2.2161568951
 H         -2.3356173016       -0.9049645268        2.2652325425
 H         -3.3821279580       -2.0011291126        3.1879272246
 H         -4.6107754613       -3.7817938670        1.8974594650
  69
  -100.500482911200       7.900040093240857E-003 !
 C         -6.4596042991       -4.4030163652        0.8227303258
 C         -5.5393763921       -3.2454977549        0.5985049484
 C         -5.6961549973       -2.4004689667       -0.4931077173
 C         -4.8246940711       -1.3511490003       -0.7258601910
 C         -5.0233518092       -0.4871702350       -1.9326059405
 C         -3.7595504692       -1.0956423900        0.1636445323
 B         -2.8151458345        0.1396068935       -0.0427291576
 C         -1.2996434897       -0.0946515724       -0.1423766081
 C         -0.7725012344       -1.3610579440       -0.4849628576
 C          0.5733541815       -1.5852801323       -0.5491714517
 C          1.4919685077       -0.5565399193       -0.2494254533
 C          2.8853288056       -0.7998241195       -0.2806083255
 N          3.3451549315       -2.0385293972       -0.6524780679
 C          4.6335420953       -2.1892823516       -0.6582496351
 Cl         5.2257949155       -3.7264416559       -1.1361636203
 N          5.5467447353       -1.2975677164       -0.3349757436
 C          5.0442104377       -0.0896210332        0.0410606783
 C          5.9858646611        0.9411279085        0.4397476822
 C          7.3580468772        0.6842538135        0.4149194404
 C          8.2513480342        1.6616599289        0.8047571911
 C          7.7909992765        2.9014749221        1.2221049774
 C          6.4284697002        3.1625910303        1.2477283379
 C          5.5279665846        2.1920944290        0.8599538372
 N          3.7597218239        0.1576129655        0.0587412008
 C          0.9786459465        0.7144817143        0.0879536421
 C         -0.3692403441        0.9352939248        0.1237286744
 C         -3.3635189767        1.6078138647       -0.1408453864
 C         -3.1056768197        2.4083810271       -1.2702445637
 C         -2.2321311579        1.9305208281       -2.3920059325
 C         -3.6803204095        3.6652444485       -1.3793055648
 C         -4.4880980208        4.1860637433       -0.3785550952
 C         -5.0834077103        5.5542150743       -0.4871923117
 C         -4.7204316599        3.4067938028        0.7503947633
 C         -4.1650763909        2.1484400722        0.8870381184
 C         -4.4239376597        1.3629889917        2.1353300687
 C         -3.5903353237       -1.9665869390        1.2601607430
 C         -2.4688840322       -1.7898297330        2.2407524154
 C         -4.4804236392       -3.0062098792        1.4667655036
 H         -7.3831766162       -4.2833210414        0.2616980051
 H         -5.9804623932       -5.3272134054        0.4971490479
 H         -6.6959670471       -4.5079628232        1.8799049729
 H         -6.5131846518       -2.5722255858       -1.1803838462
 H         -5.1366690085        0.5555523535       -1.6391798430
 H         -4.1593225063       -0.5500901514       -2.5924486690
 H         -5.9062841290       -0.7938454889       -2.4881002424
 H         -1.4583896848       -2.1637747639       -0.7165416721
 H          0.9653847030       -2.5530500727       -0.8227887069
 H          7.6965574629       -0.2863422752        0.0879366600
 H          9.3123917842        1.4597281203        0.7852704216
 H          8.4924295678        3.6637375533        1.5284558683
 H          6.0713626530        4.1283842129        1.5747321729
 H          4.4652926667        2.3785497796        0.8767004805
 H          1.6777658729        1.5055407480        0.3148079453
 H         -0.7406113773        1.9150818923        0.3909364407
 H         -2.2058590018        0.8459551924       -2.4417342753
 H         -1.2093552861        2.2758250367       -2.2400232519
 H         -2.5819475918        2.3272557297       -3.3431664212
 H         -3.4879145633        4.2549627735       -2.2652286714
 H         -4.6732827490        6.2061916005        0.2838752367
 H         -6.1621250769        5.5113421206       -0.3422154889
 H         -4.8768814531        5.9953851105       -1.4587763284
 H         -5.3447968556        3.8004755070        1.5407073823
 H         -5.0880649504        1.9048858381        2.8043122878
 H         -3.4904764409        1.1642373378        2.6594317267
 H         -4.8755148043        0.4022475368        1.8927053218
 H         -1.6152255475       -2.3996047421        1.9433916778
 H         -2.1338783217       -0.7573534152        2.2813254923
 H         -2.7791555376       -2.1082095947        3.2342845387
 H         -4.3456071640       -3.6532256428        2.3226642469
