  94
  -142.769213090000       0.271211927063165      !
 O         -3.9855100858        3.1723427994        1.4901472793
 C         -2.6859683639        2.8239805988        1.2761523007
 C         -1.6507462116        3.7323149982        1.4475492842
 C         -0.3363557836        3.3496358385        1.2639434765
 C         -0.0186417885        2.0377301259        0.9203503818
 C          1.3751569253        1.6178515943        0.7279424105
 C          1.8027739665        0.3573120990        1.1437090144
 C          3.1023719103       -0.0524648127        0.9347206097
 C          4.0197742841        0.7840744907        0.3005625947
 C          5.4053837778        0.3518842353        0.0590779210
 C          5.6959489547       -0.8614359617       -0.4608333990
 C          7.0701563854       -1.3824109872       -0.5423162997
 C          7.9385011047       -1.3006497775        0.5443848638
 C          9.2176810936       -1.8159190858        0.4588617417
 C          9.6507872295       -2.4199825907       -0.7101557500
 C          8.7913788519       -2.5169328311       -1.7919482191
 C          7.5087699718       -2.0095355370       -1.7071867590
 C          4.6543621965       -1.7583110390       -0.9901307917
 C          3.6605714758       -1.2812492449       -1.8427985007
 C          2.6968005928       -2.1352841895       -2.3429954104
 C          2.7102725197       -3.4784149640       -2.0038297336
 C          3.7032620613       -3.9656392672       -1.1706250179
 C          4.6723702828       -3.1149279805       -0.6729045049
 C          6.4422658084        1.3349628721        0.4125238395
 C          7.5011808774        1.6092089832       -0.4508450719
 C          8.4546112344        2.5505459975       -0.1133811326
 C          8.3666332080        3.2339571136        1.0884343911
 C          7.3105138359        2.9787149131        1.9473259590
 C          6.3514143336        2.0426791310        1.6097833638
 C          3.6035691179        2.0571596120       -0.0836080931
 C          2.3008832919        2.4638643037        0.1200050240
 C         -1.0596089473        1.1304383109        0.7511536988
 C         -2.3867315833        1.5067519827        0.9033386437
 C         -3.4333221415        0.5090554492        0.7161327093
 N         -3.4103265274       -0.6846770306        1.2473733945
 C         -4.5659378564       -1.3071579953        0.8760261669
 C         -4.8300039878       -2.6761856664        1.2915606083
 C         -4.2057784293       -3.1602061178        2.4410689361
 C         -4.4317990883       -4.4530612282        2.8704315811
 C         -5.2801842720       -5.2848716970        2.1577403810
 C         -5.8891789537       -4.8180866231        1.0042233992
 C         -5.6649539828       -3.5257452535        0.5681539474
 C         -5.3171017466       -0.4487255209        0.0907459875
 C         -6.6103636590       -0.6124891769       -0.5609449986
 C         -6.7701347323       -0.3150289073       -1.9132458268
 C         -8.0036599454       -0.4631652670       -2.5191494967
 C         -9.0913284931       -0.9087377236       -1.7871791955
 C         -8.9392597076       -1.2120416596       -0.4435573986
 C         -7.7093583722       -1.0646215539        0.1681670343
 N         -4.5743677080        0.7072562556       -0.0132952222
 C         -4.9083878402        1.8542631098       -0.7486333414
 C         -3.9725362007        2.4076487720       -1.6157986218
 C         -4.2941843613        3.5399985450       -2.3412318071
 C         -5.5469737430        4.1163229613       -2.2156752649
 C         -6.4787565096        3.5611421267       -1.3539397917
 C         -6.1646854628        2.4351406546       -0.6168549536
 H         -4.0315234934        4.0949222870        1.7681859626
 H         -1.8831205641        4.7483848899        1.7404886459
 H          0.4511337762        4.0714330171        1.4199252254
 H          1.1107570719       -0.2980572827        1.6511042936
 H          3.4193964157       -1.0282736320        1.2720843732
 H          7.6004214923       -0.8409834438        1.4615488201
 H          9.8799116634       -1.7494092189        1.3098589812
 H         10.6523109591       -2.8190415350       -0.7758624951
 H          9.1214759016       -2.9923012727       -2.7044395621
 H          6.8384971665       -2.0843480608       -2.5521066144
 H          3.6541534213       -0.2371497616       -2.1196060383
 H          1.9319560366       -1.7521331407       -3.0028559317
 H          1.9527674652       -4.1433119781       -2.3917410799
 H          3.7225693383       -5.0134222755       -0.9077100572
 H          5.4453095450       -3.4960766403       -0.0202310694
 H          7.5668155854        1.0875411074       -1.3943819755
 H          9.2696872661        2.7544977941       -0.7925923099
 H          9.1153811358        3.9664096232        1.3521015151
 H          7.2336406721        3.5127096583        2.8835369677
 H          5.5280853499        1.8426937341        2.2812628412
 H          4.3067203700        2.7206467487       -0.5677129355
 H          1.9895177600        3.4411291178       -0.2197644506
 H         -0.8530389890        0.1088642323        0.4721809788
 H         -3.5445318548       -2.5011504964        2.9820153213
 H         -3.9470089957       -4.8157030151        3.7655083997
 H         -5.4620687857       -6.2947860312        2.4957211824
 H         -6.5399892524       -5.4679959496        0.4367894332
 H         -6.1290271054       -3.1781312551       -0.3428944927
 H         -5.9218721516        0.0211377026       -2.4925261545
 H         -8.1150295818       -0.2320887765       -3.5685863811
 H        -10.0543261318       -1.0221204210       -2.2626919190
 H         -9.7850722198       -1.5607109596        0.1309073984
 H         -7.5871953573       -1.2972156299        1.2159814402
 H         -3.0000237255        1.9484192348       -1.7172385445
 H         -3.5639965020        3.9689438604       -3.0113941430
 H         -5.7965892366        4.9970320638       -2.7882639026
 H         -7.4555849153        4.0097780471       -1.2515769364
 H         -6.8819583737        2.0081792248        0.0667829041
  94
  -142.769198400000       0.267028568745700      !
 O         -3.9834066712        3.0961470272        1.6175574463
 C         -2.6856179384        2.7519540859        1.3868074684
 C         -1.6494432256        3.6565428741        1.5706641159
 C         -0.3371998957        3.2778768620        1.3649592653
 C         -0.0241824344        1.9721664021        0.9958930569
 C          1.3691756392        1.5631075092        0.7765435221
 C          1.8302107444        0.3246706180        1.2201112958
 C          3.1324093349       -0.0672154809        0.9910476927
 C          4.0144347895        0.7612020814        0.2979352166
 C          5.4019032166        0.3547739873        0.0282949791
 C          5.7217351706       -0.8826688337       -0.4121257011
 C          7.1140343038       -1.3483260057       -0.5201490832
 C          8.0268616926       -1.1410099231        0.5121931190
 C          9.3250591177       -1.6009851822        0.4023540310
 C          9.7332112275       -2.2751892064       -0.7369854666
 C          8.8301099098       -2.4980609234       -1.7630586840
 C          7.5289227747       -2.0454813302       -1.6534274228
 C          4.7019269325       -1.8636385190       -0.8207818596
 C          3.6526645705       -1.5034451192       -1.6641206997
 C          2.7089541278       -2.4373602676       -2.0460397371
 C          2.7984899677       -3.7447997949       -1.5965824464
 C          3.8476875684       -4.1170136430       -0.7729607106
 C          4.7966407424       -3.1865261851       -0.3933659326
 C          6.4162554372        1.3986490685        0.2539222770
 C          7.4093238093        1.6534095123       -0.6897099824
 C          8.3398512495        2.6520755406       -0.4756610869
 C          8.2940374492        3.4129191580        0.6810962926
 C          7.3031229490        3.1763321825        1.6192163366
 C          6.3668866125        2.1823976703        1.4050838970
 C          3.5612879101        2.0113118891       -0.1208230706
 C          2.2597298541        2.4041931732        0.1125459461
 C         -1.0649243304        1.0667827642        0.8177234780
 C         -2.3909189044        1.4432424356        0.9804563125
 C         -3.4470353718        0.4643089047        0.7506344394
 N         -3.4518678240       -0.7492086167        1.2354355965
 C         -4.6121707935       -1.3362294225        0.8227385023
 C         -4.9077268225       -2.7172572534        1.1721454246
 C         -4.3284081660       -3.2614412744        2.3178926445
 C         -4.5875817934       -4.5683800496        2.6811563820
 C         -5.4241563161       -5.3541485092        1.9050102243
 C         -5.9878330909       -4.8272622940        0.7545990561
 C         -5.7304874072       -3.5206521816        0.3847954002
 C         -5.3368651591       -0.4354831904        0.0601528013
 C         -6.6281180800       -0.5512266852       -0.6051126369
 C         -6.7802658862       -0.1888937521       -1.9423683259
 C         -8.0141393675       -0.2923534237       -2.5569927027
 C         -9.1096676932       -0.7573178338       -1.8490929724
 C         -8.9652168577       -1.1253153766       -0.5208169828
 C         -7.7351351973       -1.0228126802        0.0995406043
 N         -4.5730518068        0.7098991774        0.0111605804
 C         -4.8732014243        1.8890414435       -0.6871131873
 C         -3.9140273335        2.4520390459       -1.5221834083
 C         -4.2001576841        3.6177892637       -2.2085469145
 C         -5.4409776021        4.2180759948       -2.0767615879
 C         -6.3965972738        3.6526100270       -1.2484187507
 C         -6.1179134708        2.4931336767       -0.5498606206
 H         -4.0271972614        4.0131062962        1.9138757591
 H         -1.8793140293        4.6662081141        1.8867205277
 H          0.4533254265        3.9963381039        1.5219202773
 H          1.1625638985       -0.3254734444        1.7658520772
 H          3.4778297264       -1.0222742910        1.3583288344
 H          7.7092018544       -0.6263748068        1.4071604102
 H         10.0220552044       -1.4356315255        1.2111140998
 H         10.7496439344       -2.6303807287       -0.8224137772
 H          9.1408273694       -3.0286856524       -2.6515347338
 H          6.8249186424       -2.2188533505       -2.4553692982
 H          3.5858694553       -0.4874833137       -2.0251886862
 H          1.8997698051       -2.1450684092       -2.6994809607
 H          2.0559925682       -4.4715959107       -1.8912571371
 H          3.9263641260       -5.1366446619       -0.4244030061
 H          5.6132193313       -3.4767969587        0.2529165373
 H          7.4411843444        1.0702182303       -1.5983425401
 H          9.1031567671        2.8406700100       -1.2165620830
 H          9.0243745251        4.1910007100        0.8478896036
 H          7.2588404710        3.7704866796        2.5206345813
 H          5.5940948490        1.9975916367        2.1381869876
 H          4.2354983659        2.6683068841       -0.6524056092
 H          1.9195537610        3.3649958820       -0.2463580295
 H         -0.8579846413        0.0508669241        0.5183650715
 H         -3.6759885549       -2.6378554574        2.9091997345
 H         -4.1373964707       -4.9784599111        3.5738876585
 H         -5.6305306381       -6.3754783250        2.1907034412
 H         -6.6290528730       -5.4407365458        0.1377285768
 H         -6.1590552087       -3.1254036172       -0.5241268819
 H         -5.9259388367        0.1614634459       -2.5042241267
 H         -8.1199518789       -0.0099451690       -3.5944040205
 H        -10.0726195980       -0.8360637342       -2.3315319825
 H         -9.8167573115       -1.4901156785        0.0347960076
 H         -7.6187845895       -1.3055798999        1.1355864573
 H         -2.9511040743        1.9743068324       -1.6294504797
 H         -3.4516551155        4.0539170864       -2.8534622460
 H         -5.6627471376        5.1252773914       -2.6186799285
 H         -7.3641767800        4.1198313149       -1.1411817814
 H         -6.8531229760        2.0585411052        0.1095245688
  94
  -142.769069680000       0.233024782771643      !
 O         -3.9268148126        2.2856805296        2.5390777949
 C         -2.6547100649        2.0419040730        2.1161531386
 C         -1.5698624610        2.7280734137        2.6441133124
 C         -0.2813837328        2.4301014973        2.2453876353
 C         -0.0419806534        1.4279855587        1.3084968123
 C          1.3249717935        1.0923937307        0.8894977413
 C          2.3660519587        1.0437558550        1.8147721752
 C          3.6463112633        0.7118128897        1.4233112256
 C          3.9298658242        0.4256739626        0.0890019270
 C          5.2929000769        0.0887221451       -0.3494526985
 C          6.0711842594       -0.7962201738        0.3121002475
 C          7.4914858585       -0.9974677820       -0.0201979608
 C          8.3483719982        0.0856014249       -0.2053472352
 C          9.6823313147       -0.1188715612       -0.5014287347
 C         10.1825771708       -1.4055007841       -0.6168613348
 C          9.3421416379       -2.4888418458       -0.4212422010
 C          8.0090089078       -2.2877231400       -0.1175144688
 C          5.5611307607       -1.6315553255        1.4120660486
 C          4.3445275212       -2.3025240441        1.3038385637
 C          3.8893374108       -3.0993120128        2.3367502517
 C          4.6405414648       -3.2416673969        3.4919545253
 C          5.8573936358       -2.5899248610        3.6041049575
 C          6.3182359268       -1.7966243455        2.5704687270
 C          5.7458039897        0.7839307815       -1.5663201779
 C          6.3717839123        0.0922925368       -2.6013559049
 C          6.7729885772        0.7555776693       -3.7450519900
 C          6.5556154912        2.1175657104       -3.8751070725
 C          5.9219348183        2.8116350078       -2.8578560204
 C          5.5130246155        2.1497627551       -1.7155849539
 C          2.8951103302        0.5018896295       -0.8419213667
 C          1.6121562333        0.8176970601       -0.4461556655
 C         -1.1323416409        0.7512326133        0.7731396549
 C         -2.4348170728        1.0525043173        1.1482920534
 C         -3.5282101691        0.2900947219        0.5591612536
 N         -3.5159501935       -1.0097553595        0.4202164499
 C         -4.7070028548       -1.3610131154       -0.1431156472
 C         -4.9879179378       -2.7524234285       -0.4619427193
 C         -5.8796599511       -3.1186887588       -1.4682621679
 C         -6.1135149468       -4.4537723536       -1.7390137084
 C         -5.4582911619       -5.4400982569       -1.0203311259
 C         -4.5545070384       -5.0836185711       -0.0323544612
 C         -4.3184475919       -3.7515025562        0.2443223021
 C         -5.4699965600       -0.2234915538       -0.3482956933
 C         -6.8015716737       -0.0418553653       -0.9119228523
 C         -7.0291862162        0.8883154592       -1.9245372902
 C         -8.2990119202        1.0565361942       -2.4441992254
 C         -9.3555953978        0.3021711686       -1.9625857681
 C         -9.1364157566       -0.6284819086       -0.9593898885
 C         -7.8699818910       -0.8004731491       -0.4351764214
 N         -4.6979107344        0.8286468139        0.0940928505
 C         -5.0344670750        2.1896527473        0.0413865629
 C         -4.1307722790        3.0981226588       -0.4989377882
 C         -4.4558366350        4.4410407130       -0.5514724939
 C         -5.6813933357        4.8808003913       -0.0801043276
 C         -6.5819221393        3.9732859761        0.4532922081
 C         -6.2633315927        2.6302121822        0.5197143033
 H         -3.9151081099        2.9640871978        3.2248078536
 H         -1.7429619128        3.4995186172        3.3838424960
 H          0.5447609461        2.9890602920        2.6586040731
 H          2.1637042053        1.2483577087        2.8560330044
 H          4.4412475516        0.6800997786        2.1539734634
 H          7.9643280111        1.0902635258       -0.1050931763
 H         10.3364103093        0.7297105677       -0.6405333682
 H         11.2247055748       -1.5634579509       -0.8527880101
 H          9.7279947103       -3.4946495856       -0.5042478078
 H          7.3532253054       -3.1337650579        0.0337445255
 H          3.7616248715       -2.2052045472        0.3998533633
 H          2.9448013813       -3.6141684888        2.2389584292
 H          4.2816852166       -3.8629083699        4.2993290782
 H          6.4506813279       -2.7021217971        4.5001767071
 H          7.2677266739       -1.2873335898        2.6594012162
 H          6.5321715140       -0.9718780252       -2.5089182629
 H          7.2545733692        0.2068707987       -4.5413708947
 H          6.8730260227        2.6348968745       -4.7685462199
 H          5.7445077425        3.8729895151       -2.9561580190
 H          5.0200468981        2.6926725539       -0.9211342178
 H          3.1034536131        0.2956648849       -1.8824897633
 H          0.8237555638        0.8719609366       -1.1825512851
 H         -0.9843590705       -0.0475327990        0.0630257537
 H         -6.3807468248       -2.3575406166       -2.0475757169
 H         -6.8085275851       -4.7269223296       -2.5203129637
 H         -5.6459173127       -6.4822292502       -1.2349303049
 H         -4.0327599794       -5.8499079633        0.5231148719
 H         -3.6135315480       -3.4569416875        1.0062129642
 H         -6.2059981086        1.4710164191       -2.3130905392
 H         -8.4636151067        1.7783410201       -3.2309626325
 H        -10.3468125313        0.4366510045       -2.3697299036
 H         -9.9577780098       -1.2199809796       -0.5820963461
 H         -7.6944084725       -1.5234636140        0.3481359874
 H         -3.1797923008        2.7481108070       -0.8732956864
 H         -3.7506295948        5.1446994746       -0.9685340411
 H         -5.9340982178        5.9294901342       -0.1280714041
 H         -7.5369973217        4.3138198650        0.8246188560
 H         -6.9545415529        1.9219373676        0.9496641672
  94
  -142.769052120000       0.228734721419492      !
 O         -3.9853568475        3.0576796129        1.7234478150
 C         -2.6893952684        2.7152101406        1.4804842282
 C         -1.6449979052        3.5968422657        1.7215767013
 C         -0.3349290260        3.2176514402        1.5025245031
 C         -0.0320074447        1.9367043894        1.0474537400
 C          1.3568716628        1.5290706109        0.8005369288
 C          2.3869406325        1.9241180357        1.6516336653
 C          3.6901700206        1.5404728752        1.4094250138
 C          4.0054707021        0.7394489745        0.3133180684
 C          5.3979247729        0.3414779647        0.0558077043
 C          5.7334260999       -0.9210224128       -0.2934285140
 C          7.0849549553       -1.2815090667       -0.7520233757
 C          7.7009818001       -2.4368709791       -0.2748612327
 C          8.9618605436       -2.7934394628       -0.7144278007
 C          9.6207946064       -2.0109144425       -1.6480270040
 C          9.0086761349       -0.8709862502       -2.1431138931
 C          7.7513503052       -0.5077926699       -1.7004969040
 C          4.7684571049       -2.0323053329       -0.2488865111
 C          4.7043102864       -2.9445445769       -1.3005018940
 C          3.8044538566       -3.9931976336       -1.2668183190
 C          2.9644725761       -4.1553471866       -0.1777123431
 C          3.0357453497       -3.2665328379        0.8826362867
 C          3.9309030180       -2.2147344485        0.8501693633
 C          6.3961243746        1.4137272993        0.2003307287
 C          6.1408574585        2.6800700131       -0.3227035049
 C          7.0668205001        3.6968643443       -0.1856085668
 C          8.2552350866        3.4698920283        0.4883021912
 C          8.5091445785        2.2204595436        1.0301851957
 C          7.5884075396        1.2000845214        0.8894474976
 C          2.9783980810        0.3598764629       -0.5495313535
 C          1.6775372200        0.7458568086       -0.3075974219
 C         -1.0817640303        1.0555005428        0.8095371430
 C         -2.4044177168        1.4303749536        0.9992925584
 C         -3.4628032276        0.4679039186        0.7156332616
 N         -3.4678029055       -0.7701923856        1.1332867698
 C         -4.6204710690       -1.3385417735        0.6757164135
 C         -4.9127585406       -2.7376898683        0.9473543165
 C         -5.7183233670       -3.5033265735        0.1064100314
 C         -5.9727327240       -4.8290038975        0.4033684637
 C         -5.4234174315       -5.4121240325        1.5334878668
 C         -4.6036366774       -4.6633726756        2.3624860150
 C         -4.3471922693       -3.3377574773        2.0718833465
 C         -5.3400113563       -0.4005296207       -0.0455282056
 C         -6.6144025039       -0.4894145865       -0.7464370558
 C         -7.7350700503       -1.0069176342       -0.0981307448
 C         -8.9458626185       -1.0905182223       -0.7580538536
 C         -9.0571357756       -0.6579723622       -2.0700087407
 C         -7.9479782304       -0.1456188323       -2.7218193689
 C         -6.7333931567       -0.0603901860       -2.0673360008
 N         -4.5816197655        0.7495191301       -0.0217185068
 C         -4.8877270506        1.9671578020       -0.6474514098
 C         -3.9283555090        2.5933325994       -1.4359018492
 C         -4.2228058151        3.7970248411       -2.0494431264
 C         -5.4721526543        4.3730199147       -1.8918771951
 C         -6.4279688321        3.7449011060       -1.1102254261
 C         -6.1408680228        2.5468490188       -0.4839547567
 H         -4.0222700409        3.9542753540        2.0774623392
 H         -1.8671403274        4.5914341571        2.0871526901
 H          0.4585175245        3.9294893345        1.6738784017
 H          2.1595505352        2.5200183262        2.5236224190
 H          4.4771009768        1.8475609551        2.0841478617
 H          7.1874604941       -3.0478875915        0.4542770947
 H          9.4319736426       -3.6867200361       -0.3290747590
 H         10.6049790693       -2.2915557061       -1.9933159508
 H          9.5128765475       -0.2638258358       -2.8809621646
 H          7.2718001404        0.3746928019       -2.0981428140
 H          5.3566168106       -2.8167079310       -2.1531856155
 H          3.7585563932       -4.6873891154       -2.0935672458
 H          2.2598844913       -4.9734250066       -0.1528228826
 H          2.3908995618       -3.3950071113        1.7396489876
 H          3.9922155519       -1.5314542611        1.6844826901
 H          5.2152147050        2.8570193801       -0.8525494818
 H          6.8608288268        4.6708860583       -0.6057561090
 H          8.9779501538        4.2652641265        0.5965295125
 H          9.4284492478        2.0418554295        1.5688728021
 H          7.7849456666        0.2307420704        1.3234356063
 H          3.2099286848       -0.2322416036       -1.4226700249
 H          0.8988005616        0.4547955704       -0.9969805970
 H         -0.8839792973        0.0470133644        0.4806946201
 H         -6.1349854216       -3.0636532526       -0.7875605482
 H         -6.5998291403       -5.4131359640       -0.2551018697
 H         -5.6269792073       -6.4483778845        1.7617014733
 H         -4.1635418282       -5.1174053738        3.2389444225
 H         -3.7071466844       -2.7425002495        2.7045484495
 H         -7.6442126562       -1.3420331112        0.9248025013
 H         -9.8082908352       -1.4920146336       -0.2462897351
 H        -10.0053233057       -0.7216889724       -2.5831083305
 H         -8.0278585940        0.1882903628       -3.7462449857
 H         -5.8681190160        0.3285670754       -2.5852569642
 H         -2.9588395711        2.1347984145       -1.5646077421
 H         -3.4745403675        4.2815000495       -2.6591544460
 H         -5.7005171482        5.3098720700       -2.3777079644
 H         -7.4027316004        4.1920141865       -0.9840258948
 H         -6.8770115064        2.0617209565        0.1381549782
