108
 energy: -173.432739500062 gnorm: 0.000065732458 xtb: 6.7.1 (edcfbbe)
O            0.00112885830157        4.82674306748690       -0.06083329125922
C            0.00430714540872        3.61207438122632       -0.04877684683619
C            1.27171985675951        2.83940279024260       -0.04295578677039
C            1.39033921923842        1.61510369064415        0.61320744571285
C            2.59963767079421        0.94944327656593        0.62771380014530
C            3.70622108916752        1.49023951874615       -0.02184710708910
N            4.94040378358241        0.79785896939736       -0.01524770103189
C            5.05516751767350       -0.38742016239397       -0.73255931077883
C            3.98436743622276       -0.86171504362149       -1.49539704002168
C            4.08612088622054       -2.04089925660049       -2.20484484915300
C            5.26126260652283       -2.77156588033523       -2.18157232683026
C            6.33484340047999       -2.29200904365471       -1.45605159235102
C            6.25094171363983       -1.10897736903655       -0.73748770474568
C            7.48361463357919       -0.63266008927363        0.00115473047265
C            8.60026770887339       -0.43886149858952       -1.00596149143085
C            8.44516943398578        0.48467196621721       -2.03100583448448
C            9.44164804736020        0.68821350487141       -2.96551152643781
C           10.61892540683378       -0.03884412207142       -2.88403633717572
C           10.79168315642402       -0.96133151887049       -1.87299496191978
C            9.78454691641328       -1.16387173723337       -0.93260658524982
O           10.03899600593518       -2.09546631660704        0.03238296854411
C            9.09102889684661       -2.33495941818171        0.98487084992265
C            9.41027039970953       -3.29370870402163        1.94334094919474
C            8.51064111896980       -3.59846094555036        2.94371479383483
C            7.28672282010257       -2.95006405320153        2.99660725831720
C            6.97361077607450       -1.99997178642282        2.04426454543393
C            7.86536855652040       -1.67975179866926        1.02944490975011
C            7.24659919480826        0.67790037798280        0.72119856505357
C            8.29703533484955        1.22844233648050        1.44007681794248
C            8.14360932386153        2.40083533053949        2.15467790906208
C            6.90737927078907        3.02314064723192        2.16757780122105
C            5.85100386959341        2.49030785885614        1.45746397687944
C            6.00850213305313        1.32344854968144        0.70464979520233
C            3.59451217837739        2.71774689693362       -0.66985148179312
C            2.39030882845105        3.39003079469029       -0.66721392634014
C           -1.25976445579960        2.83244531812441       -0.03910845971141
C           -1.37606530414781        1.60523398267390       -0.68948008524924
C           -2.58092612909284        0.93053698426348       -0.68948305583945
C           -3.68482889414430        1.46922995453381       -0.03463984861339
N           -4.91733489105549        0.77131669267236       -0.02596463714137
C           -5.36053547712093        0.20131446346695        1.16137940692319
C           -4.56719697606244        0.25287657301125        2.31082985720331
C           -4.99990779406613       -0.30597557086458        3.49598087193440
C           -6.22875796676802       -0.93926833622434        3.56251278564786
C           -7.00534104212628       -1.01937516435942        2.42244260871429
C           -6.58681388330466       -0.46402334741899        1.22279219442203
C           -7.48031926364346       -0.62103744824649        0.01054556360752
C           -8.80515873749155        0.05926097162070        0.29630540175405
C           -8.83289038402474        1.42288114591033        0.55606683452162
C          -10.02086458911390        2.07500074799140        0.82271552726377
C          -11.20909199698075        1.36140074297641        0.83274525478413
C          -11.20214624570260        0.00597132702030        0.57626088614906
C          -10.00227603926390       -0.64798977741737        0.30738695990116
O          -10.08758840857188       -1.98864469702420        0.06373815612467
C           -8.94466505174275       -2.68439713235844       -0.20607122165163
C           -9.09652582450756       -4.04778581471573       -0.44681624576547
C           -7.99388097204901       -4.82812245316963       -0.72651272042620
C           -6.73213100302933       -4.25589576982497       -0.76846543567644
C           -6.58552287642284       -2.90341321778476       -0.52958431323641
C           -7.68288234147471       -2.10135449937646       -0.24656774256929
C           -6.87864233258169        0.00967515776161       -1.22762724454809
C           -7.59120812163088       -0.06872016290206       -2.41466395164577
C           -7.12320277005783        0.51739038705848       -3.57507106184972
C           -5.92699460471993        1.21282270635563       -3.54201533790527
C           -5.20364454793659        1.30058947369141       -2.37013874164893
C           -5.65618604012824        0.68435306829567       -1.20038142263278
C           -3.57629974733679        2.70022615449973        0.60610739787397
C           -2.37561892180380        3.37922960580978        0.59267445211550
H            0.54332817282504        1.19877814425828        1.13816016480703
H            2.69835801578867        0.00488204878835        1.14218156542374
H            3.06606987203873       -0.29657601399308       -1.54004594787412
H            3.24149338356409       -2.38599974145997       -2.78242784692615
H            5.34459115344412       -3.69621757412985       -2.73098022332057
H            7.26492591717079       -2.84212760632392       -1.44524117544168
H            7.52409986623737        1.04673558218686       -2.08809120602940
H            9.30243237331424        1.41057662344727       -3.75518104785958
H           11.40345794464928        0.11323971119456       -3.60969298095500
H           11.69784201505350       -1.54032020264038       -1.78690276162194
H           10.36950201303430       -3.78314578663734        1.87961897067072
H            8.76442130207939       -4.34251185479451        3.68343451706392
H            6.58029685917870       -3.18506171061718        3.77799519172304
H            6.02212494914000       -1.48910124624165        2.07947211547393
H            9.25096947383847        0.72060148037960        1.43822010249079
H            8.97380845238485        2.81611683247473        2.70429414929073
H            6.75865563386772        3.92833670686714        2.73700133354376
H            4.89070452979376        2.98102987008723        1.49398336989805
H            4.45786117217526        3.13685239146925       -1.16493430515590
H            2.29018797199164        4.34616798980617       -1.15850388560278
H           -0.52845198470992        1.18893915019506       -1.21351530093953
H           -2.67799402135226       -0.01735791118929       -1.19811947974000
H           -3.59994408429383        0.73030586382340        2.27355191112728
H           -4.36880581154488       -0.24798244941298        4.37027330068058
H           -6.57336360072635       -1.37425556716395        4.48761850131796
H           -7.95934889054710       -1.52589225820036        2.45646275425442
H           -7.90268309702583        1.97247580602268        0.54518926606482
H          -10.02197924491959        3.13569802639876        1.02193295013653
H          -12.14257400064425        1.86208807476313        1.04042181401639
H          -12.11266788905257       -0.57258393040091        0.57738336476163
H          -10.08927257777463       -4.46813550307125       -0.40781656709018
H           -8.11866241829421       -5.88423666061246       -0.91170593114095
H           -5.86680926208644       -4.86304300605722       -0.98629484186246
H           -5.60531007508966       -2.44964289435458       -0.55935487222462
H           -8.53345971333126       -0.59788571973225       -2.42171648493544
H           -7.69050066552030        0.44295749366945       -4.48964272159093
H           -5.55275147946023        1.69603932210309       -4.43214914906012
H           -4.28165620965416        1.86130089590049       -2.35950189349315
H           -4.43862960116234        3.11584518503900        1.10593732215276
H           -2.27988406996087        4.34170233853387        1.07229723522470
