108
 energy: -173.358027445683 gnorm: 0.000075945161 xtb: 6.7.1 (edcfbbe)
O            0.00209968811862        4.63689529567539       -0.06914947902331
C           -0.00136480554709        3.36847119001130       -0.03030227373393
C            1.26150343121622        2.65559678713799       -0.01751283955932
C            1.43070448582792        1.37875839290539        0.54634227934021
C            2.66453535273485        0.77081633114713        0.54812440925406
C            3.77162325157674        1.42145918711280        0.00506321318146
N            5.04000405864287        0.77193287897994       -0.00176579708406
C            5.31240070959296       -0.14873677379561       -0.99361530391822
C            4.36619874645528       -0.40376671638403       -1.99449730935179
C            4.62304082216775       -1.32306643272255       -2.98799128205081
C            5.82825624663973       -2.00846462584220       -3.01280436861596
C            6.77235021827747       -1.75348928054817       -2.03579956331346
C            6.53404852527260       -0.83229665887364       -1.02785057711960
C            7.61404268667842       -0.59170325374791        0.00323925416898
C            8.86431745790783       -0.11451812295988       -0.71204539144472
C            8.82612156561600        1.06754415334603       -1.43966870027605
C            9.94458379120301        1.53248805258276       -2.10332434441515
C           11.12717112175090        0.81160069042389       -2.04570843803879
C           11.18417529338144       -0.36500466594246       -1.32799435934817
C           10.05444671014114       -0.83124911035598       -0.65985657686172
O           10.19913605810203       -2.00303190091731        0.02510798624501
C            9.12750237875725       -2.50871053361341        0.70172015134357
C            9.33810724345754       -3.70567632346860        1.38233041872289
C            8.30937036599371       -4.28809034431678        2.09302671754160
C            7.06305195985169       -3.68256129980921        2.13140938891104
C            6.85728765696857       -2.49584156066229        1.45543865629600
C            7.88048286460618       -1.89475257377613        0.73445514181351
C            7.21056429482922        0.45303406899870        1.01981766435151
C            8.11044130994767        0.78725419443862        2.01971904749679
C            7.79355396691471        1.72311232622229        2.98652610214728
C            6.54840769320787        2.33302246241483        2.95950942619680
C            5.63923390337699        2.01499650588484        1.97438015415866
C            5.95731640016914        1.07698486760851        0.98396304481137
C            3.63252328539351        2.71160196318944       -0.50905468550026
C            2.40392657162317        3.32175575720964       -0.50778624642537
C           -1.26329387875092        2.65731685704306       -0.00366351935467
C           -1.42585719272204        1.33808565518988       -0.46273252968139
C           -2.66323349808648        0.73775224797484       -0.44859868090160
C           -3.78030523424687        1.43608061225506        0.00724515435652
N           -5.05485182900344        0.79699068631981        0.01873459149324
C           -5.41856457390791        0.05129475072284        1.12116348695735
C           -4.56112724933184       -0.03137920711330        2.22561259392859
C           -4.91175277425549       -0.77047208645297        3.33416124484052
C           -6.12354366439265       -1.44375140305313        3.37154958807646
C           -6.97682708707148       -1.36432149580183        2.28675176245926
C           -6.64344857932442       -0.62626825015106        1.16191229921786
C           -7.61779716887131       -0.58537563471449        0.00555508346543
C           -8.94310396409884       -0.04357023881740        0.50703558293140
C           -9.00329064055520        1.24434991490778        1.02259612997043
C          -10.19214288255732        1.77066597197961        1.48866613499335
C          -11.34706742040874        1.00536782496703        1.44378531863954
C          -11.30669403580017       -0.27627453044400        0.93528758875856
C          -10.10620218310866       -0.80409408175210        0.46593923405157
O          -10.15638819370335       -2.07861917870742       -0.02021621664990
C           -9.01421050921229       -2.64495152917574       -0.50648197915496
C           -9.13190051400392       -3.94269970499153       -0.99873941957758
C           -8.02771673090566       -4.59169846981656       -1.51072532115848
C           -6.79791981785447       -3.95270886001432       -1.53683618163212
C           -6.68427103146212       -2.66616481296298       -1.04750250007804
C           -7.78426570812498       -1.99700065988838       -0.52762830057082
C           -7.12930224338006        0.29672839348412       -1.12182238294599
C           -7.93866399535042        0.46031815471105       -2.23509169822093
C           -7.54052172323403        1.24353741393020       -3.30241663318064
C           -6.30625412779281        1.87442995183435       -3.25967971255913
C           -5.48602422192081        1.72429433102605       -2.16294703860553
C           -5.88450896018510        0.93668070630962       -1.07542374692340
C           -3.64614356947914        2.76160013516365        0.42283275414070
C           -2.41364846074107        3.36349634951842        0.40709749086246
H            0.59829311188094        0.88349835213767        1.02197835101484
H            2.79016486352885       -0.21104612874763        0.98286143590893
H            3.42971217007969        0.13153864610705       -1.98476528018989
H            3.87944071592706       -1.50476393553590       -3.74918112480752
H            6.03162265164064       -2.73027709935304       -3.78834496444218
H            7.71751042111179       -2.27706727138505       -2.05147036270394
H            7.90076232751581        1.62383666126713       -1.48031049282642
H            9.89562373877270        2.45333883197555       -2.66365995421895
H           12.00636299876954        1.16715439604247       -2.56102701455041
H           12.09157249440192       -0.94509950761086       -1.26695520520822
H           10.31734709018571       -4.15575204938939        1.33640926210846
H            8.47965948390750       -5.21561681032176        2.61807289263598
H            6.25555992306346       -4.13458711083557        2.68648803522358
H            5.88858120710768       -2.01797597112531        1.48134745425167
H            9.07535297659036        0.30102764827712        2.03718378577122
H            8.50793896913454        1.97099592758356        3.75596584810115
H            6.28349896786719        3.06018234035838        3.71194887775162
H            4.67036403426611        2.48894814041303        1.96270825217488
H            4.49978679510244        3.21858157799401       -0.90691839861340
H            2.27838835815792        4.32023071185295       -0.89744586843073
H           -0.58476312361511        0.80098720651041       -0.87310302740307
H           -2.78382125101801       -0.27551178541229       -0.80577372103742
H           -3.61909336031665        0.49390231701181        2.20242896656576
H           -4.23658922471193       -0.82101010434523        4.17495747063691
H           -6.40071524807872       -2.02382178626884        4.23789638174427
H           -7.92360608624730       -1.88475732411288        2.30816877677852
H           -8.09886503180907        1.83464373177694        1.05419586461893
H          -10.21938581163396        2.77370494291055        1.88553264930768
H          -12.28075934613552        1.40828833705437        1.80549040519238
H          -12.19064555816806       -0.89277504729113        0.88872357756777
H          -10.10031553364673       -4.41678205948026       -0.96706480829075
H           -8.12614126884809       -5.59733629771341       -1.89017436719193
H           -5.93156276608636       -4.45649557887199       -1.93698822270115
H           -5.72865333275877       -2.16234461375704       -1.06464946773558
H           -8.89709207960362       -0.03821001259939       -2.26125004808216
H           -8.18475482121602        1.35913120502682       -4.15999995349856
H           -5.98058070484555        2.48691848168488       -4.08667108558650
H           -4.52617515009864        2.21579003718497       -2.13621392385138
H           -4.52050715529928        3.30294402536952        0.75431572232821
H           -2.29165974101380        4.38954248401361        0.71851573819871
