  63
  -105.251829141100        1.00000000000000      !
 N          1.9097560767        3.6114560119       -0.7463722327
 C          1.4464786328        2.6164371160       -0.4069382570
 C          0.8510502894        1.3923286020       -0.0387346260
 C         -0.5218729113        1.2664877870       -0.1225956944
 C         -1.1524459854        0.0386332670        0.1439646516
 C         -2.5619786045       -0.0753198669        0.0672905926
 N         -3.3123803720        1.0011680797       -0.2697003458
 C         -4.6120284129        0.8765883714       -0.3231957920
 C         -5.4222111308        2.0350557286       -0.6813249183
 C         -4.8131674800        3.2505405244       -0.9949093496
 C         -5.5848495226        4.3433219580       -1.3340181438
 C         -6.9676886745        4.2382764433       -1.3637439019
 C         -7.5781501152        3.0330016099       -1.0526755363
 C         -6.8129799959        1.9349023546       -0.7132731073
 N         -5.2430905960       -0.2829700968       -0.0631462571
 C         -4.4687628195       -1.3345745319        0.2595673959
 C         -5.1243090397       -2.6067880681        0.5405299476
 C         -6.5141789405       -2.7063375065        0.4794080198
 C         -7.1343082585       -3.9107329051        0.7463187009
 C         -6.3784837673       -5.0254932992        1.0749695334
 C         -4.9958359717       -4.9323650298        1.1362010265
 C         -4.3686013117       -3.7317604168        0.8716234676
 N         -3.1659761900       -1.2583567082        0.3337052332
 C         -0.3405209596       -1.0760306365        0.4759680703
 C          1.0197745319       -0.9515937647        0.5618556959
 C          1.6452036663        0.2787508465        0.3321406848
 N          3.0361725545        0.3946405151        0.4334676040
 C          3.7433862107        1.3646381212        1.1418404029
 C          3.2631497160        2.3640273544        1.9664442312
 C          4.1884574459        3.1927309281        2.5812471018
 C          5.5560072249        3.0214118856        2.3884479110
 C          6.0450176914        2.0038787184        1.5926496408
 C          5.1378647438        1.1538649881        0.9664195778
 C          5.2625237797        0.0029979188        0.1367171313
 C          6.2278954602       -0.8307256143       -0.4879549223
 C          7.6221695263       -0.7661201213       -0.4780276539
 C          8.3528757610       -1.7055606768       -1.1756044069
 C          7.7194527061       -2.7178661783       -1.8885863298
 C          6.3358700433       -2.8048864787       -1.9171338958
 C          5.6030502683       -1.8657113437       -1.2221496689
 S          3.8360696899       -1.8097316202       -1.1456125896
 C          3.9524844177       -0.4147682989       -0.1409952157
 H         -1.1262051855        2.1126450249       -0.4105678858
 H         -3.7364369648        3.3172490097       -0.9686115392
 H         -5.1098642785        5.2824878879       -1.5771493997
 H         -7.5683674884        5.0957278094       -1.6291479414
 H         -8.6550718338        2.9524573469       -1.0760247947
 H         -7.2723391226        0.9896340258       -0.4689799133
 H         -7.0876105780       -1.8292409104        0.2223161241
 H         -8.2109404263       -3.9842144535        0.6988815861
 H         -6.8659392987       -5.9665679104        1.2830513612
 H         -4.4083078930       -5.8018456958        1.3923331919
 H         -3.2939824166       -3.6435381915        0.9152222766
 H         -0.8228177704       -2.0211137268        0.6647048929
 H          1.6312348632       -1.8015849419        0.8275228007
 H          2.2061824706        2.4967191896        2.1340035010
 H          3.8383757415        3.9852599191        3.2243519854
 H          6.2451049130        3.6908245880        2.8802515015
 H          7.1066671047        1.8641631450        1.4626966629
 H          8.1133981499        0.0192405006        0.0744491212
 H          9.4311471970       -1.6556794264       -1.1687568099
 H          8.3079722630       -3.4440363624       -2.4276887451
 H          5.8393021553       -3.5860734465       -2.4711625771
