112
 energy: -165.502975924663 gnorm: 0.000048783823 xtb: 6.7.1 (edcfbbe)
C           -5.65215149057970        6.44494980593484       -0.99178852771215
C           -5.29483368917788        5.69608640849777        0.29493871556965
C           -6.19531887537130        6.22301696192757        1.42117826150370
C           -3.82334769848055        5.98525610871069        0.62438223853980
C           -5.48406412269035        4.19300366957071        0.17070844219388
C           -5.92935627686122        3.58097342789811       -0.99612994587435
C           -6.07896901350998        2.20849986828844       -1.07680214454640
C           -5.78351731811522        1.40860710145224        0.02078654870771
N           -5.91995326022840        0.01063996349544       -0.05807154095378
C           -4.86746109819155       -0.92825866526073       -0.09996248658138
C           -3.49392588335365       -0.68205922750081       -0.14606513923455
C           -2.61735568210624       -1.81212373456247       -0.03999136336832
C           -1.26939297056580       -1.67563914837395       -0.05087416294289
C           -0.64188937181674       -0.40034942517897       -0.16099374966223
C            0.77970388385599       -0.24842218727418       -0.13487482380085
C            1.38739499451602        0.98335360480791        0.20439961613453
C            2.75089535407853        1.12738108226966        0.25108250760137
C            3.58669346133071        0.05082763784809       -0.05836793266529
N            4.99662989961841        0.16635614328843       -0.04560229374151
C            5.66283735587061        0.19142871995031       -1.26140506956054
C            4.95746009749349        0.42459127488114       -2.44532083525422
C            5.62109251719956        0.50307999640558       -3.65188188904236
C            6.99894771038068        0.36758875329647       -3.69979042031028
C            7.70391450566047        0.13705917898013       -2.53135638098432
C            7.05412760322830        0.04136354698904       -1.31072077953446
C            7.79449661918803       -0.31893773182137       -0.04180949526986
C            9.23283162027082        0.15632450260242       -0.14395777653109
C            9.46918932149195        1.52699708392061       -0.20801256207510
C           10.75565609517639        2.01695977357474       -0.32227440548825
C           11.82889602011766        1.14255527786976       -0.38067012370709
C           11.60180861423958       -0.22070130956169       -0.33045547007741
C           10.31163801914438       -0.71261304873655       -0.21554567290160
C            7.70548923144211       -1.83148392171804        0.19080965136798
C            8.09631714719226       -2.36348972358475        1.41548226786506
C            8.01705997306416       -3.72227708914073        1.65631625630085
C            7.53975564502038       -4.57724091613987        0.67734985988806
C            7.15131193010227       -4.05874855362507       -0.54420103586252
C            7.23451449051063       -2.69776694200278       -0.78691852412805
C            7.09036583746723        0.32612830769129        1.13781525335916
C            7.78309552358404        0.69224500461854        2.28108892073947
C            7.11675136672812        1.09399371230593        3.42576664768983
C            5.73245850004054        1.08853726411159        3.44369575936483
C            5.02394623795935        0.75580093320267        2.30774785564713
C            5.69050354612796        0.41699460512704        1.12753582233342
C            3.01213701588074       -1.16822237542527       -0.42943137572331
C            1.64963304060910       -1.31874545514148       -0.45077085400804
C           -1.51468482097667        0.71499432660641       -0.31069774321522
C           -2.86699813884331        0.59019361519506       -0.31624608408143
N           -5.36765406993936       -2.18148716005723       -0.12786189144726
C           -6.68738200495752       -2.07066049418661       -0.13307313142576
C           -7.65026158260486       -3.12123361079205       -0.19571642458283
C           -7.24461836809352       -4.45430843916344       -0.28603647986760
C           -8.17768818071346       -5.46241626271173       -0.37100246267206
C           -9.52966569252466       -5.13661673830381       -0.37141996761707
C           -9.94028913059552       -3.82363615223418       -0.27887186397054
C           -9.02023323138285       -2.77050251911787       -0.18133542138643
C           -9.42098624084950       -1.37963130581872       -0.05566826319423
C          -10.76588911351723       -1.00969477795794        0.02525699023092
C          -11.16148477302727        0.30180715773003        0.17472764728015
C          -10.20511643941492        1.31319675190468        0.26456899745301
C           -8.87456022655129        1.00012497753725        0.18419303079312
C           -8.44324749061238       -0.33274246657463        0.01020191412485
C           -7.08894118084728       -0.70601117430800       -0.07700400151073
C           -5.34374209098041        2.00398470323991        1.19879592228749
C           -5.19870528060954        3.37460132670446        1.26279788219358
H           -6.69521430604442        6.29115489302485       -1.25866322666542
H           -5.02065665439280        6.12791542511695       -1.81854852543563
H           -5.49846117301810        7.51181630537061       -0.84329319493160
H           -7.23823062923525        6.00155346885690        1.20371215290723
H           -6.08419684034230        7.30108960923035        1.51478192006782
H           -5.94329915183636        5.77156811343395        2.37664368255860
H           -3.66072007190560        7.05831881887945        0.69840991967810
H           -3.17859104331328        5.59186941123279       -0.15893874557026
H           -3.53017713751501        5.53111802662845        1.56678684417269
H           -6.16410584699951        4.16674645886403       -1.86934721481191
H           -6.42488716314112        1.74880322731599       -1.99121548936545
H           -3.07989772078467       -2.77948374967780        0.07153426483510
H           -0.65466044942415       -2.55380557570814        0.07455699749536
H            0.76839623126917        1.82922704055283        0.45992157330354
H            3.18899563088779        2.08264428933189        0.50436578052397
H            3.88644816261034        0.55202474862067       -2.40918175629808
H            5.05994497814393        0.67967129207090       -4.55721953970024
H            7.52203049663442        0.43210288463755       -4.64146455901524
H            8.77572549199508        0.01094108724975       -2.56895520746270
H            8.63263423216708        2.21036402867793       -0.16603168696788
H           10.92236796318509        3.08329202571368       -0.36738457365186
H           12.83566349091401        1.52340484724516       -0.46887043905819
H           12.43190549829467       -0.91013424099761       -0.38295462845626
H           10.14976205054131       -1.77988450208176       -0.18518292232119
H            8.46826839797533       -1.70954915810424        2.18962805416204
H            8.32817429421218       -4.11415646434062        2.61371410921617
H            7.47305441965897       -5.63851937309126        0.86572080256858
H            6.78069481229456       -4.71477051927120       -1.31854685662590
H            6.93265604457016       -2.31782278807101       -1.75151638408941
H            8.86293228672623        0.65477476140799        2.27979897969241
H            7.67531667379498        1.37704627496481        4.30472433061340
H            5.19886147377290        1.35012559087525        4.34514434542923
H            3.94613700243291        0.74888533053783        2.33535287735467
H            3.66136583278303       -1.99282962849309       -0.68839554187964
H            1.23661112948608       -2.26962858123711       -0.74800960106457
H           -1.08860601395680        1.69270077958004       -0.48031663019267
H           -3.47052306765858        1.46578264012008       -0.48992229806454
H           -6.18543794703510       -4.65923571579698       -0.29079772498762
H           -7.86755725933109       -6.49426744672279       -0.44073579984703
H          -10.27014244321597       -5.92026478833190       -0.44476126713218
H          -10.99996667666517       -3.62352961662002       -0.28600210688944
H          -11.53345634172171       -1.76550168652599       -0.02176897726358
H          -12.21194231718443        0.54490856162471        0.23274760058891
H          -10.51339336938248        2.33932695119201        0.40061082054421
H           -8.13980334247969        1.78398165664271        0.26906160236962
H           -5.11062049459534        1.38453374243574        2.05209790147440
H           -4.85472313046366        3.80859462839801        2.18900657286421
