112
 energy: -165.585929999263 gnorm: 0.000050209532 xtb: 6.7.1 (edcfbbe)
C           -6.24387028839690        5.34159494337922        1.90348313028906
C           -4.90047213099074        4.66436102924779        1.59733593558958
C           -4.08140519292918        4.52158532632881        2.88811285444079
C           -4.12161901554171        5.56355772834856        0.63368474474109
C           -5.16142405675214        3.28037094935629        1.02561949121843
C           -4.71527209736726        2.88404780754488       -0.22946789952270
C           -4.96880900814510        1.61379691839781       -0.71636184941969
C           -5.68127049621445        0.70455556721059        0.05092211793390
N           -5.91020670380226       -0.60021691577182       -0.42977580807590
C           -4.93361477898411       -1.54134879292853       -0.67158294375662
C           -3.51000804209965       -1.35291600795644       -0.45433186844279
C           -2.62846483071346       -2.04801742980722       -1.28500559887798
C           -1.26567969483996       -1.92272976866451       -1.12753302246914
C           -0.73622263205512       -1.10938795821240       -0.12592024277881
C            0.71639656955511       -0.97687449927783        0.04547865904842
C            1.28291653502506       -0.96912853011529        1.31925158620343
C            2.64869135290202       -0.85335909795214        1.48477477278578
C            3.47602399608040       -0.72942724875051        0.37391612175835
N            4.88473642665612       -0.61386237072655        0.50820892202140
C            5.45004745081055        0.55684816424720        0.99318504699392
C            4.65977349882119        1.58201099316356        1.51351051083525
C            5.24221441306800        2.71081686720096        2.05449379019188
C            6.61958980910047        2.83229854543077        2.09685169567202
C            7.40744493003862        1.83907916236482        1.54110059532638
C            6.84180451793146        0.71141451781931        0.96763629232562
C            7.67217742178131       -0.29222677624687        0.18726112910849
C            9.10314743361791       -0.32076499147980        0.69201587191441
C            9.31948612740335       -0.56813957419023        2.04519097389381
C           10.60118847568269       -0.62396675590095        2.55704552551036
C           11.69110770886454       -0.43835329512813        1.72181026279807
C           11.48563798636232       -0.20299611066935        0.37467372466435
C           10.20003750262678       -0.14649264520307       -0.13893891514953
C            7.59476356750981        0.13359467005212       -1.28179310067857
C            7.30173504490251       -0.77144502787081       -2.29346325672710
C            7.22674503721708       -0.35684818738985       -3.61269989925521
C            7.44672223621714        0.96766125937640       -3.94396727813359
C            7.74721251181167        1.87631868541442       -2.94332708792882
C            7.81842649416484        1.46293136039422       -1.62619347712530
C            7.04990237265762       -1.66415475241618        0.34771791412779
C            7.81202485331464       -2.82138863175472        0.32320833654997
C            7.21576608011698       -4.07028575238799        0.35117887087641
C            5.83576388628473       -4.16696592548366        0.39279125031189
C            5.05969355423367       -3.02582099543572        0.43391276808301
C            5.65610899791346       -1.76450564173137        0.42063283165956
C            2.92288480648538       -0.73738266303015       -0.89994687738419
C            1.55682087355056       -0.86392394457868       -1.06046718338026
C           -1.61815537644125       -0.43749593204941        0.71748437664225
C           -2.98431856294231       -0.55442242935799        0.56023473193687
N           -5.43579162335850       -2.66404061642546       -1.12632485844267
C           -6.77855996290810       -2.47829895334163       -1.18619981003289
C           -7.77253521282784       -3.41623817506501       -1.58183585868231
C           -7.42888012198499       -4.71625833843940       -1.96675007271544
C           -8.40401266977827       -5.61522914977137       -2.31928561456441
C           -9.74049071920295       -5.22219336086844       -2.28683590826742
C          -10.08906138298106       -3.94510230546317       -1.91404437477795
C           -9.12130113996625       -2.99460671316611       -1.55423063599565
C           -9.45453778991544       -1.62926168840360       -1.18564024225821
C          -10.77673836857863       -1.16362748655729       -1.21240593296458
C          -11.09947636763765        0.13682191329644       -0.90508506222219
C          -10.09908974341370        1.04323279537760       -0.56951395262440
C           -8.79175788051325        0.62633301709761       -0.52366336952771
C           -8.44427046684823       -0.70252446884594       -0.80630178922869
C           -7.10695079337157       -1.18881284161628       -0.76884671248766
C           -6.13325073910582        1.08037110188191        1.31183852068366
C           -5.87499642779760        2.35141761855593        1.78221864930281
H           -6.81417042923748        4.78231446516559        2.63981298831215
H           -6.84064879083276        5.42026633688606        0.99705221485606
H           -6.07631801973600        6.34306667709292        2.29354306671109
H           -3.86924932010070        5.50311994212097        3.30611889645569
H           -3.13644629116196        4.02367522701917        2.68036349339615
H           -4.61540987809615        3.94216807902297        3.63614894934853
H           -4.67043268330757        5.71284715279506       -0.29331041490948
H           -3.14432222824857        5.14347324885777        0.40754009296450
H           -3.96882371286841        6.53795846176208        1.09294724724009
H           -4.15939602941445        3.56243738105455       -0.85481141826759
H           -4.61129020584153        1.32161380477204       -1.69275362185048
H           -3.04134344709523       -2.68682760126906       -2.04989452380579
H           -0.59844966061455       -2.47705805301000       -1.77111776361706
H            0.64785751946952       -1.08314717214910        2.18535895943708
H            3.08439010747719       -0.86618124335140        2.47346837039799
H            3.58437314652922        1.49542030525745        1.48931219169883
H            4.61398639683821        3.49441674689660        2.45171021580071
H            7.07966639864853        3.70459862989311        2.53545997968286
H            8.48243666812654        1.94888923134357        1.54406900148959
H            8.47031714807080       -0.71668191040765        2.69734033498363
H           10.75165403024818       -0.81412399856222        3.60982110141495
H           12.69426432511216       -0.48095128717645        2.11992942666842
H           12.32961146390894       -0.06386838604324       -0.28543296609378
H           10.05623379044333        0.03138644668668       -1.19437920041625
H            7.13289851578888       -1.81179783246870       -2.05887187279988
H            6.99587259651350       -1.07733350051404       -4.38426256966147
H            7.38689196247237        1.29005211531201       -4.97313968973566
H            7.92636673461477        2.91316706037713       -3.18867462436942
H            8.05204869198350        2.18308683408249       -0.85649413226391
H            8.88737162376398       -2.74388240226099        0.25980555136310
H            7.82586231456462       -4.96012327530248        0.32414935600868
H            5.35770007583986       -5.13531019792618        0.39980913621748
H            3.98421601704911       -3.10836415845859        0.47900618964871
H            3.57393503217132       -0.64373513473266       -1.75684199485801
H            1.13198852050764       -0.85334981921216       -2.05320573946188
H           -1.22804302553234        0.19818245963097        1.49914899902556
H           -3.63796576234846       -0.03709110709061        1.24543842351251
H           -6.38299797786154       -4.98121251640568       -1.96930010679508
H           -8.14375043072234       -6.62063158463152       -2.61586488640711
H          -10.51260913326247       -5.92804174654380       -2.55757289475709
H          -11.13645103966224       -3.68819407256259       -1.90203181574428
H          -11.57530339154853       -1.83308756030368       -1.48844946816162
H          -12.13027567377661        0.45803580855537       -0.93634136983043
H          -10.34770748901529        2.07105512797060       -0.34959320362334
H           -8.01831682327303        1.33712084851066       -0.27993859834441
H           -6.68697139591960        0.37296648134127        1.91225744765375
H           -6.23772739513139        2.61569649786109        2.76362873822658
