49
 energy: -83.043664648468 gnorm: 0.000068225254 xtb: 6.7.1 (edcfbbe)
N            8.77269287367377       -2.54893675923468        0.00045322516674
C            7.91664457324203       -1.78659040965739        0.00031699630756
C            6.86637016136715       -0.84227383766749        0.00003063597578
C            7.14426995755980        0.52334178702368       -0.00017185146326
C            6.11310527664368        1.45115788473156       -0.00040264550007
C            4.79215636991351        1.04328036810312       -0.00041528790454
C            4.48744988456567       -0.31439318382232       -0.00020242546779
C            5.53155816539162       -1.25498365856066       -0.00000046634429
S            4.96620046436854       -2.90563309672979        0.00020488742807
C            3.30615297475178       -2.35696886803866        0.00004768526673
C            2.18334514663127       -3.17207012669150        0.00012438490009
C            0.93971667721708       -2.57977898703648        0.00005359400017
C            0.80831666198395       -1.18529971929336       -0.00008813517573
C           -0.52333604717607       -0.57884082554464       -0.00007595538441
N           -1.57670262711570       -1.38899041056761       -0.00006463662653
C           -2.76792231838690       -0.79583257515034       -0.00002851369213
C           -3.95818432783262       -1.64559356737432       -0.00002607256924
C           -3.82858663159320       -3.03322307822326        0.00004429000975
C           -4.95468465991781       -3.83290788714497        0.00003000049064
C           -6.21603925667827       -3.25767987837161       -0.00005700209801
C           -6.35045486072205       -1.87785952219578       -0.00012525004516
C           -5.22846724527128       -1.07236241697530       -0.00010592116865
N           -2.93972340866264        0.52279821174585        0.00002863601037
C           -1.83180861247349        1.25775444807586        0.00003464778744
C           -1.97270085797950        2.71388820984558        0.00010051856308
C           -0.84180281886360        3.52811315504720        0.00019202559262
C           -0.97840879453425        4.90246937676019        0.00028526127294
C           -2.24072673700174        5.47552724642754        0.00028403642439
C           -3.36910869510457        4.67022864063300        0.00018963146499
C           -3.23921809891927        3.29509089299558        0.00009612694034
N           -0.60232339238775        0.74862312288814       -0.00003770809155
C            1.93565408561322       -0.37469029633013       -0.00020837209576
C            3.19622244221019       -0.95420606712051       -0.00014552156245
H            8.17385938598418        0.84810549184187       -0.00013846083670
H            6.34988671137489        2.50409703896864       -0.00057291614170
H            3.99412943232702        1.76943249116056       -0.00059380412688
H            2.29075820141589       -4.24551291703359        0.00025888771132
H            0.04352706985567       -3.17883725295181        0.00012353987786
H           -2.83946335900346       -3.46327827213936        0.00010131104898
H           -4.85247049934657       -4.90823190219989        0.00008825860744
H           -7.09517275647954       -3.88541387642507       -0.00006208381586
H           -7.33435366719914       -1.43210312463753       -0.00018829579658
H           -5.31350641026978        0.00284453232690       -0.00015963511462
H            0.13201113123556        3.06442591719099        0.00020611736393
H           -0.10072555006005        5.53226774131398        0.00035114980003
H           -2.34500214017081        6.55071821838694        0.00033558960517
H           -4.35157045864681        5.11907030458196        0.00018287207124
H           -4.10561849735386        2.65277658953195        0.00004338347956
H            1.81405608183152        0.69648284753011       -0.00033773215223
