49
 energy: -83.043663974649 gnorm: 0.000033148066 xtb: 6.7.1 (edcfbbe)
N            8.36566431958985       -1.10912295349625        0.01345274596872
C            7.41451656908872       -0.46933235513918        0.01677889418373
C            6.24705815530353        0.32552172542132        0.02110700664198
C            6.33978570014545        1.71596056024487        0.03869143768102
C            5.19385324882128        2.49758114188028        0.04317645954186
C            3.93935790724810        1.91678130556744        0.03051086511414
C            3.81905674209528        0.53066894356509        0.01295173296822
C            4.97947870597244       -0.26193173642522        0.00817064488072
S            4.63959892065193       -1.97322696878669       -0.01429726316077
C            2.92106103640957       -1.65125326717411       -0.01701838191175
C            1.91691318274368       -2.60864583029955       -0.03179156425680
C            0.60530629912200       -2.18754312802133       -0.03038283938733
C            0.28915015965113       -0.82315740872312       -0.01517166328896
C           -1.11106218378592       -0.39830329894703       -0.01249250968959
N           -2.04871410564537       -1.33997152525527       -0.00930327952134
C           -3.30754806693596       -0.90828783426500       -0.00318501510851
C           -4.37662191387134       -1.90619968784846        0.00462685986723
C           -5.71063076019652       -1.50304030326150        0.01770984433772
C           -6.71835440706192       -2.44751342642053        0.02617645914421
C           -6.40567811869914       -3.79813183548891        0.02140696255127
C           -5.08029147525539       -4.20444191502792        0.00819093630859
C           -4.06769139914974       -3.26516191426904       -0.00006242391039
N           -3.65106719969055        0.37632422324427       -0.00311052423951
C           -2.64944781582845        1.25055304558364       -0.00903288971035
C           -2.98065506988571        2.67547329243733       -0.01145079118788
C           -4.31266069664212        3.08480022705803       -0.00354084783678
C           -4.62257087063677        4.43082584793966       -0.00583432859314
C           -3.61010683565918        5.37769645024594       -0.01609665846533
C           -2.28333692393084        4.97588488967753       -0.02417865812722
C           -1.96686966860295        3.63149748083427       -0.02190123464430
N           -1.36384575193265        0.90731452052615       -0.01244478803844
C            1.29841898162518        0.13036934254205       -0.00121953153564
C            2.62494576014652       -0.27580694747414       -0.00158169115421
H            7.31668561042081        2.17540480004208        0.04883642435983
H            5.28768551146857        3.57264324187294        0.05684808181405
H            3.05135047093329        2.52961981774921        0.03422237987852
H            2.16649117031342       -3.65812162425283       -0.04372200769018
H           -0.20289392900208       -2.90081603207915       -0.04110739809144
H           -5.93473809076096       -0.44802757897553        0.02130737119813
H           -7.75178956400919       -2.13340194753869        0.03659504696779
H           -7.19572048490208       -4.53482299345682        0.02809134699207
H           -4.83920258252085       -5.25735427837027        0.00449429033892
H           -3.03108877085205       -3.56295914344778       -0.01003413368345
H           -5.08682886124498        2.33393031813792        0.00430702242505
H           -5.65557893925140        4.74632533695838        0.00031800513329
H           -3.85509826111058        6.42977988871251       -0.01783031566092
H           -1.49628739113631        5.71579031806951       -0.03230546728733
H           -0.94047234661295        3.30013780300678       -0.02842180236904
H            1.03504254176219        1.17567609859923        0.01056090445138
