49
 energy: -82.964356205466 gnorm: 0.000094699439 xtb: 6.7.1 (edcfbbe)
N            8.38534163540051       -1.11327985258227        0.01525234920745
C            7.43320949570696       -0.47437563570378        0.01664477804338
C            6.26672580800895        0.32044496004023        0.01836567921997
C            6.36171386457420        1.71191459482063        0.02992339539296
C            5.21740573478537        2.49349737677945        0.03167356416767
C            3.96051923217652        1.91261209979895        0.02194299954613
C            3.83718718056477        0.52865871404554        0.01047020261856
C            4.99776737651002       -0.26546048575517        0.00883333633687
S            4.65764654692273       -1.97481001692073       -0.00501035737354
C            2.93654778300569       -1.65346749526957       -0.00799400395091
C            1.92707639039556       -2.61103818791811       -0.01664690545068
C            0.61989487791386       -2.19421184231147       -0.01657322645355
C            0.28883971626051       -0.81943480968535       -0.00878431687093
C           -1.07145423272321       -0.40692193517354       -0.00815264531709
N           -2.07056492810501       -1.32586902982079       -0.00644353495892
C           -3.31444318434550       -0.93882609100267       -0.00279200237416
C           -4.38299977031569       -1.92311050122667        0.00240321796023
C           -5.71685900364522       -1.51051443179909        0.00930219480737
C           -6.73098291005735       -2.44664286458393        0.01559636679649
C           -6.43006681883344       -3.80028828127663        0.01492872965228
C           -5.10633337929138       -4.21658046807922        0.00785981758399
C           -4.08642382896530       -3.28783691319754        0.00168210046149
N           -3.64422233122530        0.37133606530558       -0.00270277208591
C           -2.63889867220541        1.27949205268303       -0.00661941102043
C           -2.98069308532919        2.69001258270560       -0.00913235148510
C           -4.31929662884058        3.08884339786595       -0.00343289305900
C           -4.64220864015912        4.43050396461672       -0.00639468508351
C           -3.64034817532734        5.38929492996517       -0.01515467788034
C           -2.30832556725280        4.99976400952650       -0.02090655676791
C           -1.97638962828594        3.66122855046637       -0.01790764520524
N           -1.38913457005194        0.91033744455121       -0.00830970294199
C            1.32064822730218        0.13516947804450       -0.00076895815337
C            2.63867128476860       -0.27617666944887        0.00040977834783
H            7.33942267402281        2.16972263301820        0.03761535802627
H            5.31101711892616        3.56871182094902        0.04087569558056
H            3.07412859774275        2.52790854098225        0.02347970983923
H            2.17698118130457       -3.66071026193803       -0.02296563900311
H           -0.18465767043784       -2.91231555887190       -0.02278589503705
H           -5.93544082579014       -0.45360403141799        0.00985018290183
H           -7.76157096660890       -2.12343589460902        0.02115758194614
H           -7.22560126082572       -4.53047125436118        0.01996938541028
H           -4.87363678449165       -5.27125499103923        0.00731666939701
H           -3.05234835588404       -3.59633458018528       -0.00361951326315
H           -5.08843767518638        2.33178901682652        0.00329485360543
H           -5.67871436830442        4.73425913428154       -0.00194776222218
H           -3.89618001266984        6.43836488343293       -0.01759068378875
H           -1.52914462177262        5.74781398799421       -0.02788208007650
H           -0.94533987018397        3.34291888168974       -0.02261881174598
H            1.06460564204598        1.18252957675977        0.00539605339182
