107
 energy: -163.663204156366 gnorm: 0.000049699751 xtb: 6.7.1 (edcfbbe)
C          -11.57880623312743       -3.55549826127284       -1.55095393670300
C          -10.37924279427951       -3.97730044565627       -0.69702539222967
C           -9.69876790670101       -5.17333445712167       -1.38056003955197
C          -10.89822686271565       -4.39683339954832        0.68711238436635
C           -9.36113842822070       -2.86382189941307       -0.52523331304881
C           -8.20524714136752       -3.09514130340979        0.22330096838252
C           -7.24918416679993       -2.12029593894674        0.40517073995055
C           -7.41527137365299       -0.85647691879911       -0.16633597019427
N           -6.45130398988817        0.14028867692081        0.00760572153233
C           -5.10078463707712       -0.19207326948167        0.03332607176400
C           -4.20745858273418        0.51183641783392        0.84815871410017
C           -2.87393713550688        0.16919019413371        0.87808388437925
C           -2.38829275522070       -0.89258355018743        0.11279359232283
C           -0.97162933858231       -1.26794961836293        0.16862806554996
C            0.01523497335122       -0.29982328238177        0.09211937676221
C            1.37468405861444       -0.63057310290444        0.11110102077593
N            2.31666307465275        0.30644453675798        0.01877495993888
C            3.60749906125980       -0.02923188222618        0.02984139058778
C            4.61524483127340        0.97098637549566       -0.07862022146101
C            4.29148758238887        2.33534001644305       -0.18962337162004
C            5.29183121008033        3.26406113182156       -0.30023288942646
C            6.63347230217969        2.82595347413187       -0.29665571262654
C            7.76126288522961        3.75830640557631       -0.40999547210568
C            9.01605009745022        3.38888934911785        0.07987058547682
C           10.06659401209849        4.28124895156406       -0.03448355132189
N            9.95307260941780        5.47876083767960       -0.59008540532237
C            8.76773731714429        5.82622383824421       -1.06462489450769
C            7.64638192905376        5.01589323233251       -1.00376635608589
N            6.94685512552746        1.54861050455525       -0.17421525215946
C            5.99208546598132        0.63160166034737       -0.07118634909058
C            6.37578562993964       -0.75543123564431        0.05086586457143
N            7.66984868746347       -1.05790718791797        0.06105413709589
C            8.05766734317627       -2.31503819562140        0.17596776061501
C            9.50873515141282       -2.54265694103450        0.18075101059010
C           10.35878265617834       -1.59308762628578       -0.38995465947882
C           11.72236951714054       -1.82549879980350       -0.37832952213693
N           12.27602372841386       -2.90706039740268        0.14979529148032
C           11.47290480261526       -3.80238784787168        0.70115639428494
C           10.09442127099486       -3.67494887019852        0.74745305347266
C            7.13101235515847       -3.37383737059077        0.26954448302264
C            5.79136797472376       -3.08306047479732        0.25805822841494
C            5.37009151276161       -1.74732028509961        0.15566449219679
C            3.98374863197191       -1.40021524401814        0.14572093127485
N            3.05517892198122       -2.34262797929964        0.24149540347072
C            1.75459573771112       -2.01637492317175        0.22774523178557
C            0.75917970246345       -2.98138797368381        0.32999673805247
C           -0.59062447763571       -2.62124981026412        0.29940786820268
C           -1.55343159100162       -3.63039974167964        0.47421492696690
N           -2.31358957546747       -4.47746592628519        0.64603034892719
C           -3.27913901166644       -1.58204190591086       -0.71147232809896
C           -4.61159403047879       -1.23793421446705       -0.75641682412635
C           -6.85220486755192        1.47037163608357        0.16085093765255
C           -8.00406980981391        1.78932637054354        0.87943358040372
C           -8.39719701299938        3.10484071723407        1.02703867172098
C           -7.66678857121314        4.15092967526488        0.46901698224732
C           -8.06534444577368        5.60943154103688        0.61186663709299
C           -9.33759825295511        5.79548874503656        1.44407503597939
C           -8.31443713774610        6.19737660490750       -0.78591702512560
C           -6.92452221770441        6.37396208858319        1.30098512626313
C           -6.51823389692509        3.81690628032107       -0.25112940268671
C           -6.11228777957372        2.50969420485915       -0.40722777034095
C           -8.56756185517512       -0.61008247802066       -0.91275564041800
C           -9.51660620788752       -1.59814004918365       -1.08495667892953
H          -11.26692203973933       -3.27296124827412       -2.55388595441525
H          -12.26959153120333       -4.39146167095918       -1.63939322827598
H          -12.11447706465404       -2.72649765480503       -1.09414250445147
H           -8.87605255001088       -5.55866619658661       -0.78472067531981
H          -10.41753827696535       -5.97678624526748       -1.52606269715809
H           -9.30817203138149       -4.88049784950064       -2.35325059249969
H          -10.09563351517065       -4.77042149245854        1.31681132617978
H          -11.36202378287132       -3.55004445111509        1.18925767728213
H          -11.64144713387557       -5.18408039979235        0.58175100711565
H           -8.04333606754216       -4.05623633608885        0.68580696465177
H           -6.37315136841207       -2.32712763073895        1.00225816167859
H           -4.57333765317401        1.31206159808359        1.47368483511270
H           -2.19916650603790        0.70377369692455        1.52968043285225
H           -0.24881264234016        0.74109561115228       -0.01460840843592
H            3.24847025785920        2.61656304657858       -0.18239700687847
H            5.06035688395540        4.31504540758147       -0.36578262096217
H            9.14151587874372        2.42105624913929        0.53747807989915
H           11.05293653391758        4.03311036772058        0.33637491563980
H            8.71900420931712        6.80825435149108       -1.51822295160229
H            6.71489008609000        5.35375276700913       -1.42993339982024
H            9.93878047797238       -0.70240850972839       -0.82818193569060
H           12.41369278208029       -1.11485253768813       -0.81304384902324
H           11.96503388396834       -4.66665009839452        1.12927651622331
H            9.49960029648669       -4.43303683891110        1.23214304010911
H            7.46981606440794       -4.39575261083992        0.32616784258939
H            5.03912476012918       -3.85590042383942        0.32317159054111
H            1.04484990529481       -4.01686975472138        0.43890720831968
H           -2.91577911098271       -2.37982407981954       -1.34182053389678
H           -5.28186395829031       -1.76846331221296       -1.41543261207615
H           -8.58006593089801        0.99925985176170        1.33801301274893
H           -9.28793762838007        3.30353448446762        1.59909722947305
H           -9.20504066704533        5.41459554986138        2.45419638566401
H           -9.57014297303090        6.85603482116855        1.51498316289332
H          -10.18668612163375        5.29795773156620        0.98111835816557
H           -8.61862876510211        7.23837915817102       -0.70198525227245
H           -7.42030926405464        6.15396829886654       -1.40156614685786
H           -9.10553665287969        5.64718415520705       -1.29166220371256
H           -7.20177539590873        7.41788509508162        1.43016250052180
H           -6.00901215457743        6.33668379429334        0.71722662993444
H           -6.72254634755511        5.94791121086394        2.28186584306645
H           -5.92585423685189        4.59179132594154       -0.71219375802234
H           -5.22853157213044        2.28113742764877       -0.98445970037704
H           -8.70568550664452        0.35622617993221       -1.37489106368406
H          -10.38454096507332       -1.36549546988549       -1.67891956877506
