101
 energy: -152.475824072109 gnorm: 0.000190547476 xtb: 6.7.1 (edcfbbe)
C           -5.82489797110914       -6.84349430116694        0.27795185593888
C           -6.71043690946695       -5.81130320709679       -0.42651452527090
C           -6.78129202216289       -6.17683688565647       -1.91732497681420
C           -8.11499326071898       -5.88113281683900        0.19221958391784
C           -6.18008791606656       -4.39437718380284       -0.29142572386497
C           -6.88058138261496       -3.33705810506577       -0.87451782109313
C           -6.44142185490171       -2.03448859448118       -0.78131928431095
C           -5.26602477230326       -1.73557695567886       -0.08947805076358
N           -4.81707396188674       -0.41680603106760        0.01748128850815
C           -3.45488967158562       -0.13321628497434       -0.02987760224238
C           -2.59892025273636       -0.87719695172068       -0.84762279304535
C           -1.25459817735974       -0.58094110063046       -0.90116277555989
C           -0.71987096841947        0.47175479023602       -0.15676211663834
C            0.71138875610772        0.79054232273630       -0.22746726603906
C            1.63855145036999       -0.23740412849072       -0.10510110409348
C            3.00940060946235        0.00806742837007       -0.08513936557149
N            3.90552180115557       -0.97642670954228        0.04159170696333
C            5.20529098409668       -0.71485458771914        0.07775430000214
C            6.15599505533488       -1.77355295374951        0.21730068822963
C            5.69390623200782       -3.10021396895785        0.30088920420361
C            6.56161588484241       -4.14716082775928        0.43703175710179
C            7.94493140996390       -3.88611504394682        0.49498298384853
C            8.85539179973240       -4.95193312073026        0.63677386195518
N            9.59649304695412       -5.82280581102082        0.75276111795541
C            8.41883739363762       -2.58482413871729        0.41301665671656
C            7.54742663782116       -1.50178847795113        0.27322370050689
C            8.00856452495979       -0.13424619497339        0.18343788375447
C            9.36084778420162        0.21240495218914        0.23910883187502
C            9.77086150080197        1.53451715117092        0.14707957945143
C           11.14336092806702        1.84593616101241        0.21006450638850
N           12.26221002277540        2.10412526970936        0.26224659375841
C            8.82463107988263        2.56680232248419       -0.00829011028387
C            7.49706546286222        2.24690296531679       -0.06199560494800
C            7.06212939417969        0.91194570752940        0.03285653692147
C            5.66073776762284        0.63325179692762       -0.02022440456644
N            4.78304212111713        1.61820047985113       -0.15376012468452
C            3.46973512709721        1.36800733639384       -0.19286949449068
C            2.52778009055487        2.38328475006510       -0.33937238742956
C            1.16427167401629        2.11792495280913       -0.36520696313657
C            0.23285011560386        3.22989453805499       -0.59117150091888
C            0.35540376157183        4.43670994213165        0.09723815466389
C           -0.54353454659706        5.45779440363779       -0.15786159746233
C           -1.54086731859106        5.23992286611080       -1.09614715848634
N           -1.65568976426167        4.10995046203934       -1.77754394640293
C           -0.79331217635877        3.14226165687794       -1.53613588541328
C           -1.57495637823271        1.19549134778852        0.67744605529446
C           -2.91791207410138        0.90136843986653        0.74320550629008
C           -5.74158447083253        0.62015406907337        0.16977819484023
C           -5.53498725039305        1.85694810698466       -0.44493095002327
C           -6.45298958372461        2.87208617326604       -0.28757393222612
C           -7.60900712517781        2.70859083515348        0.47784847647594
C           -8.58787156311461        3.86196003182582        0.61540634959773
C           -7.86373138194875        5.06008077488851        1.24841132679234
C           -9.79382281513771        3.51238326581644        1.49261828309118
C           -9.10450726519746        4.24614529332165       -0.77981079199888
C           -7.80411836034180        1.46966169155631        1.08259963159112
C           -6.89293217814877        0.44226662475017        0.93620278476671
C           -4.55577257312564       -2.78240492358443        0.49727019981655
C           -5.00931891949034       -4.08283068879538        0.39469579382857
H           -6.25263796519697       -7.83541510997780        0.14707622553406
H           -5.76306101861854       -6.64479101808726        1.34557793519230
H           -4.82215915690087       -6.85454763825344       -0.14326949654931
H           -7.14074150669330       -7.19699875242484       -2.03314349173013
H           -7.45379509957317       -5.51663684593960       -2.45786392025201
H           -5.79450736775962       -6.10624577271677       -2.37092159083895
H           -8.50130877098002       -6.89571923346508        0.12328683188830
H           -8.07948903704886       -5.59703285058497        1.24219509400303
H           -8.80872366879900       -5.21898845992061       -0.31825559791180
H           -7.78839008578216       -3.52970688844137       -1.42472266763060
H           -6.99651081821350       -1.23910783607335       -1.25621467594107
H           -3.00247365987265       -1.67267186752565       -1.45605187942374
H           -0.60921204521735       -1.14681194510260       -1.55641105250496
H            1.30628295630438       -1.25748616995467        0.01366133778247
H            4.62825631197784       -3.26325580688223        0.25350134644086
H            6.20751629880353       -5.16496100504532        0.50092668260035
H            9.48574599437938       -2.43228191804410        0.45983438629173
H           10.12041935437148       -0.54458607801064        0.35679957291046
H            9.15907164461552        3.59071849501800       -0.08072917806843
H            6.74474486136631        3.01185029977866       -0.17825324239212
H            2.88928237576430        3.39333861933662       -0.46096695079502
H            1.13460197585296        4.55917596590308        0.83638429000279
H           -0.47596717570417        6.39959452441219        0.36458200123277
H           -2.27818989068224        5.99886520350897       -1.32262129297307
H           -0.91523013398426        2.24881533425831       -2.13500740066415
H           -1.17188631347102        1.98113195970563        1.29864925439424
H           -3.56170430901801        1.46014690393744        1.40571072302801
H           -4.65967786366190        2.01025111588083       -1.05827940074597
H           -6.26067445408651        3.80992019607511       -0.78494322260301
H           -7.03466539228902        5.39570897590090        0.63163259228197
H           -7.47431854409104        4.79130604215939        2.22853903899916
H           -8.55559204859682        5.89089110445464        1.36914399932446
H          -10.36018496423885        2.68556674498196        1.07011861580552
H          -10.45620850192443        4.37335992054855        1.55505300927842
H           -9.48362908895491        3.25587138473171        2.50308531440729
H           -8.29536779118664        4.56941302558276       -1.42870988000016
H           -9.82186516548741        5.05998512830782       -0.69947414982960
H           -9.59884353006761        3.39631339334481       -1.24648405255886
H           -8.67397891262751        1.28844431173410        1.69166995586615
H           -7.06220534438490       -0.50269961323861        1.43118845112534
H           -3.65304453650822       -2.56885316494047        1.05061784484357
H           -4.43196198879946       -4.85670423066010        0.87247978751387
