  101
       -152.40778475
 C         -7.1279385389       -6.1881698686       -1.8542900096
 C         -7.1459177268       -5.7982545664       -0.3689946190
 C         -8.5956557541       -5.7272938889        0.1327086535
 C         -6.4204157519       -6.8902329768        0.4219317779
 C         -6.4997078545       -4.4326155952       -0.2096877167
 C         -7.0584839231       -3.3268033862       -0.8505698239
 C         -6.5154024180       -2.0660442657       -0.7333264559
 C         -5.3754453556       -1.8594618662        0.0446307468
 N         -4.8200158249       -0.5884611858        0.1843786380
 C         -3.4366428209       -0.4237018107        0.2679981680
 C         -2.5700401256       -1.1902581023       -0.5124384995
 C         -1.2169431130       -0.9249094300       -0.5090261311
 C         -0.6930720808        0.1101253019        0.2639035496
 C          0.7149640342        0.5050537542        0.1429292390
 C          1.7218676415       -0.4479169124        0.2144439010
 C          3.0664421516       -0.0981964267        0.1299382654
 N          4.0475418604       -0.9964765223        0.1914998643
 C          5.3212958630       -0.6484995757        0.1131451729
 C          6.3578083333       -1.6289089523        0.1703342897
 C          6.0052040300       -2.9842308463        0.3085260662
 C          6.9590063403       -3.9611530504        0.3607583673
 C          8.3166032365       -3.5980164630        0.2742198378
 C          9.3136379256       -4.5938085376        0.3233572523
 N         10.1244553035       -5.4053268108        0.3647636269
 C          8.6823797068       -2.2676165703        0.1398224275
 C          7.7225831688       -1.2538282307        0.0852973385
 C          8.0679500805        0.1427368660       -0.0543073187
 C          9.3890815558        0.5900865090       -0.1358416671
 C          9.6850135342        1.9376036739       -0.2706355562
 C         11.0302108966        2.3527489403       -0.3505686137
 N         12.1246231412        2.6933018836       -0.4178105353
 C          8.6535207503        2.8942497992       -0.3283526582
 C          7.3549182366        2.4765629758       -0.2501638532
 C          7.0357881128        1.1129521908       -0.1130767627
 C          5.6622438909        0.7302294855       -0.0349675500
 N          4.6980575975        1.6331255041       -0.0967643508
 C          3.4115315408        1.2963297345       -0.0275376858
 C          2.3861269635        2.2336730497       -0.1117954571
 C          1.0504185313        1.8610084713       -0.0408308224
 C          0.0067484261        2.8816527641       -0.2016087235
 C          0.0368499419        4.0779576958        0.5122015636
 C         -0.9941755497        4.9878358841        0.3531383686
 C         -2.0281629546        4.6686297129       -0.5127116807
 N         -2.0532940049        3.5540102883       -1.2267140381
 C         -1.0623968744        2.6978455154       -1.0839971802
 C         -1.5531585677        0.8074245483        1.1148751302
 C         -2.9036039248        0.5481207325        1.1181621166
 C         -5.6305902014        0.5511674771        0.1927385884
 C         -5.1960195327        1.7355184978       -0.4052934625
 C         -5.9960917173        2.8564109591       -0.3848487317
 C         -7.2524552919        2.8551630692        0.2210705145
 C         -8.0896414956        4.1225771829        0.2113537075
 C         -7.3033471509        5.2459358193        0.9025056882
 C         -9.4250555704        3.9544213867        0.9409618502
 C         -8.3823080975        4.5130867125       -1.2446908404
 C         -7.6748493707        1.6678289320        0.8102146129
 C         -6.8835077050        0.5352774743        0.8014636029
 C         -4.8021257120       -2.9578173016        0.6830807473
 C         -5.3570530851       -4.2158437338        0.5537002436
 H         -7.5755275098       -7.1704601963       -1.9880088727
 H         -6.1044613288       -6.2226573421       -2.2221282977
 H         -7.6833278704       -5.4763542467       -2.4588619399
 H         -9.0683490376       -6.7031912107        0.0473692616
 H         -8.6179595343       -5.4236815322        1.1774250129
 H         -9.1819946180       -5.0154849665       -0.4417654733
 H         -6.9294013509       -7.8407381685        0.2767247861
 H         -5.3938690560       -7.0058006473        0.0817541292
 H         -6.4215518701       -6.6692059942        1.4869404605
 H         -7.9372107393       -3.4462363709       -1.4656987345
 H         -6.9629431808       -1.2321252757       -1.2536745681
 H         -2.9722597814       -1.9612599632       -1.1530901763
 H         -0.5604012708       -1.4876183116       -1.1561977928
 H          1.4756178894       -1.4879354801        0.3653977409
 H          4.9552101938       -3.2261138822        0.3706435758
 H          6.6916166871       -5.0017389386        0.4658225388
 H          9.7341646995       -2.0366442127        0.0773387520
 H         10.2117639478       -0.1063043683       -0.0944021633
 H          8.9017286414        3.9394965230       -0.4337323997
 H          6.5389018007        3.1816310793       -0.2921369733
 H          2.6564344360        3.2670560188       -0.2681753383
 H          0.8473634025        4.2756562782        1.1998046608
 H         -1.0005734779        5.9190563482        0.8982096691
 H         -2.8699720609        5.3335831480       -0.6528815491
 H         -1.1118130376        1.8164871920       -1.7108777881
 H         -1.1528859892        1.5594955579        1.7782674126
 H         -3.5641389800        1.1045617476        1.7663551012
 H         -4.2331411463        1.7774633666       -0.8921191549
 H         -5.6233785562        3.7474799532       -0.8648968240
 H         -6.3716092555        5.4547197102        0.3845430030
 H         -7.0687731081        4.9657926558        1.9274614225
 H         -7.8944779798        6.1588354501        0.9211032967
 H        -10.0369304045        3.1892330319        0.4687924987
 H         -9.9764710003        4.8916298416        0.9066473855
 H         -9.2708370754        3.6945857799        1.9858254442
 H         -8.9255872279        3.7150241656       -1.7465452023
 H         -7.4654645178        4.7000988696       -1.7965787645
 H         -8.9892196048        5.4152598319       -1.2749161146
 H         -8.6332328305        1.6081819111        1.2992153326
 H         -7.2309449705       -0.3680953734        1.2815171749
 H         -3.9236459428       -2.8167419995        1.2958765762
 H         -4.8816690308       -5.0314384854        1.0731266154
