107
 energy: -163.702004146761 gnorm: 0.000098755547 xtb: 6.7.1 (edcfbbe)
C           -9.33734849227950       -4.93700888190681       -0.22439088226487
C           -8.05770434647941       -5.01589501143028       -1.07054693166694
C           -8.42463034449922       -5.11750334637438       -2.55872001440160
C           -7.30231453115617       -6.28938392349447       -0.67819003699901
C           -7.23728837107060       -3.75515500120129       -0.84568431017511
C           -5.94798444815472       -3.76956782578988       -0.32527213403473
C           -5.23399240642028       -2.60192878066313       -0.12879000847028
C           -5.78694732747031       -1.36898883077364       -0.45968802398504
N           -5.07068944474419       -0.17822066889313       -0.25327817036870
C           -3.71610022205872       -0.10894276271596       -0.53476890070676
C           -2.87413951045086        0.72875162231538        0.20642436382427
C           -1.52838366736662        0.79646535293942       -0.07289235354579
C           -0.97251172113179        0.05219219381427       -1.11553878298472
C            0.45784413776536        0.14254773598942       -1.41261239305626
C            1.39400984518770        0.12147548207658       -0.40464713354313
C            2.77034927261161        0.18459265087830       -0.68559039001770
N            3.66143629308534        0.12846063672594        0.31875315196368
C            4.94339174167113        0.18305760822535        0.01213094313545
C            5.92147579281025        0.10541121748210        1.07166642600177
C            5.54743343238760       -0.05236924176845        2.41131413089290
C            6.52098884904773       -0.12305489364247        3.38033584895347
C            7.86825498900172       -0.03051008116679        2.99309295498721
C            8.96991203211250       -0.09735949416179        3.96492772999586
C           10.23301805563584       -0.51971370334733        3.54753209243231
C           11.25656320017597       -0.57673435477983        4.47769161585369
N           11.10578386244060       -0.24680776189040        5.75112069604213
C            9.91197434547825        0.16392620984073        6.14540315240626
C            8.81456015891119        0.25817127683733        5.30436711251631
N            8.22581262334717        0.10500133560332        1.72564843188581
C            7.29824033497682        0.17274634591140        0.77918817221469
C            7.74169716087743        0.31971367073106       -0.60009209285495
N            9.04704421740928        0.38486145986676       -0.82937106483100
C            9.49437561189861        0.51707399684479       -2.06830320670368
C           10.95566151329032        0.58343868820457       -2.21850934795650
C           11.74059314633385        1.00988898230603       -1.14614950224931
C           13.11377529553790        1.07029877445714       -1.30913477096960
N           13.73154027268846        0.73955454297317       -2.43267272149682
C           12.98959755211834        0.32458348919708       -3.44597927177865
C           11.60810372923527        0.22666209471662       -3.39817255180415
C            8.62420777730713        0.60890707831174       -3.16755230516364
C            7.26847641658923        0.54263099177008       -2.94638971165063
C            6.79222172403020        0.38905728144969       -1.63892246824063
C            5.38130273750150        0.31245504145425       -1.34552797266448
N            4.51533148249622        0.36095436912797       -2.34116762890646
C            3.21121850448629        0.29112546321643       -2.04073401556261
C            2.25135365190900        0.33545815917160       -3.06955421586269
C            0.91180141084820        0.26100991193715       -2.76334910012638
C           -0.01090395558666        0.38159274836205       -3.82920833493059
N           -0.70972647302771        0.51681903691091       -4.72954549472280
C           -1.81135006152199       -0.78677535981947       -1.85088046069919
C           -3.15472572189799       -0.87407421245224       -1.56327250582721
C           -5.75905561387537        0.95162933393675        0.22039689293191
C           -6.73463781117528        0.82794083090028        1.20381042194840
C           -7.42525735470016        1.93835461305346        1.65374225835922
C           -7.16870699664907        3.20837944854031        1.14953034472953
C           -7.90478808769408        4.45428106551206        1.61772915804416
C           -8.94751207999818        4.15301171896467        2.69855377611332
C           -8.62728925537574        5.08900246330799        0.41982796295524
C           -6.88749958200221        5.44868085966406        2.19731058082599
C           -6.18664962306928        3.31764367727956        0.16605564776547
C           -5.49546764579230        2.21773738848505       -0.29767895838264
C           -7.07738333161626       -1.34020849819845       -0.98283344294739
C           -7.78159713863098       -2.51229429377161       -1.16523026461965
H           -9.94686610903128       -4.08289848544987       -0.50657309775195
H           -9.93108579464916       -5.83878349242273       -0.35903925703439
H           -9.08590177481164       -4.84343690650944        0.83043507139566
H           -7.52312427399028       -5.14720651474752       -3.16786530902890
H           -8.99489258897522       -6.02584606461026       -2.74188373090615
H           -9.02413092487884       -4.26988505804025       -2.87898692544210
H           -6.39403979678378       -6.40245704549996       -1.26595063005428
H           -7.04589268743680       -6.28388349947445        0.37884167597277
H           -7.93288532469398       -7.15634717705533       -0.86542491730035
H           -5.47597799959387       -4.69918688016020       -0.05231862429946
H           -4.23796308934514       -2.64445296645734        0.28841602085229
H           -3.28806446001312        1.32069507420559        1.00899641187591
H           -0.89685998244326        1.45375767260523        0.50648505456000
H            1.09073865009654        0.02795454650936        0.62661079129195
H            4.49746003565259       -0.11985372216690        2.65230876813385
H            6.25482230804702       -0.26795258133820        4.41486597456797
H           10.38817524081047       -0.79416482298151        2.51693795572714
H           12.25009509893314       -0.90070008297357        4.19564172302170
H            9.83441936460610        0.43164398825120        7.19148647275331
H            7.87351847817388        0.62212331021901        5.68521358457735
H           11.26750377742810        1.28590609363551       -0.21797213351309
H           13.75767992443972        1.39852269977174       -0.50335051258916
H           13.53467338151370        0.05684601346602       -4.34224897347585
H           11.06408271694568       -0.14031786186795       -4.25399939799656
H            9.01012346671104        0.75032466478161       -4.16411507151410
H            6.55604625762384        0.61067663612721       -3.75438560701724
H            2.58739227351921        0.43810466600968       -4.09062500832222
H           -1.40200681584758       -1.39406348755044       -2.64515851018677
H           -3.78544689513671       -1.52919960208709       -2.14486086071469
H           -6.95347426533321       -0.14642572098776        1.61647911368785
H           -8.17060368907405        1.79135036438022        2.41792995949920
H           -8.48250866436220        3.72418644151887        3.58342367109948
H           -9.44000732450646        5.07760733350575        2.99334757873961
H           -9.70955621948789        3.47069011624870        2.32862078501108
H           -9.17303660740838        5.97472431049402        0.73845044636932
H           -7.92646187441103        5.38291590005407       -0.35676408386908
H           -9.33561624370193        4.38309854491647       -0.00978503296049
H           -7.39727638336704        6.34248374952921        2.55095203420184
H           -6.15575404405065        5.74748371365343        1.45170303876235
H           -6.35725897536054        4.99950464133919        3.03500204544135
H           -5.95513433089218        4.28062187393656       -0.26340724545192
H           -4.74954449195103        2.33300210199992       -1.07124447796294
H           -7.52388870654602       -0.39256758218133       -1.24722613865202
H           -8.77824224184653       -2.44764882294756       -1.57467262110253
