107
 energy: -163.663209395419 gnorm: 0.000086327821 xtb: 6.7.1 (edcfbbe)
C          -11.58735594755831       -3.58684842880298       -1.34548198339482
C          -10.35828958982746       -3.98188414145102       -0.52127331080586
C           -9.69069826381537       -5.18793449037302       -1.19990545728480
C          -10.83024713523853       -4.37493199331751        0.88729285375981
C           -9.34376775634314       -2.85794081478905       -0.40569893936273
C           -8.16474950112622       -3.06406874349270        0.31355812219661
C           -7.21207549134026       -2.07816215655410        0.44661280378701
C           -7.40471739263840       -0.82839908359268       -0.14731955145272
N           -6.44607972726854        0.17992010905535       -0.01866172862582
C           -5.09281540549713       -0.14408761184870       -0.00847450460544
C           -4.19242096275530        0.57255931294763        0.78690691609262
C           -2.85885401754839        0.22918586372379        0.81108306310834
C           -2.38004495158857       -0.84377117109612        0.05703417101273
C           -0.96614870747370       -1.22854328789653        0.11665943629889
C            0.02990391857946       -0.26971153642034        0.04058480666962
C            1.38630978012858       -0.61238534362456        0.06965188257283
N            2.33743449036973        0.31606796557596       -0.01662906338253
C            3.62511835064528       -0.03123819710196        0.00553673966098
C            4.64297872944982        0.95990353644699       -0.09158625599837
C            4.33275514727183        2.32759204183695       -0.19995995206757
C            5.34247518268722        3.24769224716881       -0.29661000199040
C            6.68002009878304        2.79745324617372       -0.28165784368302
C            7.81730458329083        3.72021236278005       -0.37759091358503
C            9.06346673309015        3.33662536822804        0.12335081600805
C           10.12296628097427        4.22035936578224        0.02598971427049
N           10.02600448884916        5.42232192704705       -0.52306500415949
C            8.84892637294243        5.78333899926300       -1.00791071418786
C            7.71991705553767        4.98261744257118       -0.96422502682329
N            6.98055746082152        1.51666724648182       -0.16295120538895
C            6.01660318305290        0.60789301289915       -0.07339301743245
C            6.38667863904160       -0.78311324695460        0.04559790910474
N            7.67776634436900       -1.09798584534871        0.06235088744521
C            8.05276330253891       -2.35918636929767        0.17520649657906
C            9.50144055353801       -2.60130578481614        0.18664517762084
C           10.36385953692668       -1.65934082016484       -0.37803651282610
C           11.72487425045327       -1.90613420963765       -0.36111551850672
N           12.26486197728928       -2.99467094333591        0.16683084575510
C           11.45001299638812       -3.88261078965692        0.71289900533800
C           10.07276493698753       -3.74082683663666        0.75350658078112
C            7.11553937985355       -3.40935448851370        0.26035257197985
C            5.77884598124900       -3.10574885585401        0.24188850000094
C            5.37105158867517       -1.76573291526388        0.14087804445429
C            3.98814269178087       -1.40562242959417        0.12294103655575
N            3.05049890770755       -2.33954588634036        0.21321660466539
C            1.75316719303205       -2.00122321180110        0.19200288869684
C            0.74862297104312       -2.95679617233240        0.29314759773370
C           -0.59764554703541       -2.58457608308030        0.25608330776051
C           -1.56846493781966       -3.58530521412997        0.43534791355219
N           -2.33310648542675       -4.42722370006701        0.61253902465414
C           -3.27695577981613       -1.54013159739144       -0.75498205565600
C           -4.60993745028644       -1.19732275475552       -0.79199502261810
C           -6.85248642592207        1.51038501551774        0.11220642166667
C           -7.99534344611747        1.83923171179000        0.84081174789051
C           -8.39560035612161        3.15525610005257        0.96201701454216
C           -7.68092386865254        4.19231253943985        0.36795323238375
C           -8.08802126295838        5.65104393319963        0.48129005768150
C           -9.35688716454909        5.84731420495434        1.31634413954790
C           -8.34888723635458        6.20765100357405       -0.92709979184121
C           -6.94777952154147        6.43658291814092        1.14736055048527
C           -6.53951931963498        3.84872669976169       -0.35908981026379
C           -6.12688697672020        2.54079615082773       -0.48967697569343
C           -8.57869352294705       -0.60834580934319       -0.86787894673555
C           -9.52448971205771       -1.60689520437354       -0.99026372153204
H          -11.30964706129592       -3.32523971335852       -2.36401761792406
H          -12.27499332934127       -4.42869951230150       -1.39286010208873
H          -12.11362478841450       -2.75095305980444       -0.89034465448082
H           -8.84699355320234       -5.55456662592603       -0.62186974917100
H          -10.40777291929795       -5.99912098258364       -1.30533829707997
H           -9.33270419190010       -4.91403899401732       -2.19051276445478
H          -10.00554965156515       -4.72993205543577        1.49894268969176
H          -11.28375899849465       -3.52055322857290        1.38594359296676
H          -11.57093952453135       -5.16892086539822        0.82239487864077
H           -7.98177728641966       -4.01334049063336        0.79230477445192
H           -6.31811389461077       -2.26509173806768        1.02330652263952
H           -4.55322316605543        1.38135983411139        1.40432968997980
H           -2.17904862377299        0.77131748185515        1.45107889146361
H           -0.22398705090811        0.77313345003799       -0.07180367321740
H            3.29230206674585        2.61824221635839       -0.20123276457513
H            5.12102266896484        4.30099785200568       -0.35956155753927
H            9.17562455872341        2.36485518819033        0.57603768188320
H           11.10300113072265        3.96116470472088        0.40586467132102
H            8.81371143658352        6.76867587297759       -1.45554807885884
H            6.79607247949421        5.33153069210222       -1.39804344155265
H            9.95511073668526       -0.76325791074818       -0.81591325520513
H           12.42549566905853       -1.20188181595940       -0.79132258909342
H           11.93115799249570       -4.75295724057927        1.14119809700411
H            9.46791696747182       -4.49365844681786        1.23396751499101
H            7.44429640601676       -4.43461699311905        0.31575856367598
H            5.01879218656498       -3.87146295479597        0.30011746253576
H            1.02424603263190       -3.99439513522330        0.40754674608402
H           -2.91863178539685       -2.34400070022345       -1.38039363886409
H           -5.28622474070033       -1.73592919566805       -1.43823541662557
H           -8.55899218809736        1.05693242155945        1.32714921527062
H           -9.27932470290358        3.36186385976227        1.54209342050865
H           -9.21593995071100        5.49205063982604        2.33461964989735
H           -9.59725529570778        6.90745243521668        1.36310983610151
H          -10.20455193004971        5.33220141616281        0.87030450364190
H           -8.66136322323116        7.24762842724479       -0.86330054889229
H           -7.45765130030276        6.15912012179645       -1.54648512401409
H           -9.13790828602426        5.64050069793862       -1.41707875147665
H           -7.22923569172731        7.48195845895412        1.25373581297776
H           -6.03475507125831        6.38960484664138        0.56036318342648
H           -6.73951594000297        6.03404407329612        2.13682265288623
H           -5.95837226652789        4.61631564469228       -0.84592920406279
H           -5.24946338137736        2.30418311819026       -1.07329427625512
H           -8.73725076376088        0.34570391082803       -1.34850780170001
H          -10.41049302371301       -1.39436030279937       -1.56479669010300
