  107
       -163.63249565
 C        -11.5075388218       -3.5781759928       -1.5944142632
 C        -10.3329776538       -3.9651227931       -0.6916705162
 C         -9.6354265655       -5.1840818197       -1.3118379440
 C        -10.8901496706       -4.3331835673        0.6908431263
 C         -9.3219766632       -2.8415396502       -0.5324240004
 C         -8.1809599994       -3.0490191212        0.2403972014
 C         -7.2334202487       -2.0632094723        0.4173410883
 C         -7.3922959006       -0.8186915891       -0.1881318625
 N         -6.4347361660        0.1936981284       -0.0184431269
 C         -5.0841963176       -0.1177325886       -0.0129915479
 C         -4.1745351343        0.6280244835        0.7439378190
 C         -2.8385388096        0.2962987112        0.7596226592
 C         -2.3618786460       -0.8013696603        0.0422753472
 C         -0.9468270138       -1.1714946233        0.0970383209
 C          0.0437677338       -0.2234575800        0.0060671845
 C          1.4028076030       -0.5855105521        0.0430311616
 N          2.3490037088        0.3600315351       -0.0682450657
 C          3.6105950477       -0.0212850920       -0.0338898120
 C          4.6480402245        0.9750812174       -0.1589922884
 C          4.3566358055        2.3346232150       -0.3155579076
 C          5.3884061672        3.2366032792       -0.4346722815
 C          6.7101797654        2.7624607135       -0.4003834318
 C          7.8764479377        3.6479436888       -0.5228784368
 C          9.1141327393        3.2150791479       -0.0443186097
 C         10.2049929035        4.0575045404       -0.1643264465
 N         10.1424218440        5.2597301111       -0.7146365267
 C          8.9737389111        5.6661272921       -1.1787495734
 C          7.8147970020        4.9097409986       -1.1120223553
 N          6.9878668947        1.4792842789       -0.2368981789
 C          6.0045998241        0.5988019944       -0.1171619953
 C          6.3675024682       -0.7982791621        0.0627793523
 N          7.6573769962       -1.0981693270        0.1153172938
 C          8.0373440256       -2.3554738473        0.2747940778
 C          9.4897099018       -2.5737552875        0.3213089305
 C         10.3421106206       -1.6066201052       -0.2142853140
 C         11.7076647785       -1.8231379496       -0.1655410395
 N         12.2574734300       -2.9031022723        0.3670940519
 C         11.4521081813       -3.8142811284        0.8847628306
 C         10.0707639139       -3.7051533311        0.8915650613
 C          7.1080095647       -3.4042084171        0.3734512805
 C          5.7655728124       -3.1083851710        0.3248298656
 C          5.3615758996       -1.7772426810        0.1739084164
 C          3.9694613229       -1.3998856044        0.1245700649
 N          3.0481293358       -2.3375750298        0.2290192696
 C          1.7635733037       -1.9601227380        0.1878932078
 C          0.7468760482       -2.9260534827        0.3026593845
 C         -0.5730458523       -2.5413749345        0.2592683081
 C         -1.5576553198       -3.5380619568        0.4554665143
 N         -2.3090922120       -4.3828991795        0.6514019377
 C         -3.2670445000       -1.5334126558       -0.7270533928
 C         -4.5998748240       -1.1942217666       -0.7633663199
 C         -6.8710079540        1.5135678252        0.1612031560
 C         -8.0029577129        1.7882054084        0.9218504111
 C         -8.4431700499        3.0879060572        1.0868248692
 C         -7.7741285946        4.1605939816        0.5092233155
 C         -8.2255461278        5.6035427626        0.6663653678
 C         -9.4705376462        5.7390440771        1.5471323203
 C         -8.5542831395        6.1767495748       -0.7195766684
 C         -7.0941116299        6.4173569419        1.3102247334
 C         -6.6421742603        3.8721347082       -0.2508235998
 C         -6.1957031110        2.5796033549       -0.4293160027
 C         -8.5288762548       -0.5965153613       -0.9580428352
 C         -9.4742650825       -1.5919332885       -1.1213256616
 H        -11.1642982369       -3.3233499221       -2.5945044038
 H        -12.1920664190       -4.4197351050       -1.6784157883
 H        -12.0595156470       -2.7372998070       -1.1808723165
 H         -8.8308700015       -5.5462155328       -0.6780187223
 H        -10.3491747411       -5.9931442782       -1.4511854038
 H         -9.2149733452       -4.9237836987       -2.2811633616
 H        -10.1016170776       -4.6718966254        1.3570961301
 H        -11.3720939420       -3.4692602677        1.1441119280
 H        -11.6250527822       -5.1298835794        0.5988873920
 H         -8.0217434030       -3.9991368247        0.7263100922
 H         -6.3628591802       -2.2536027141        1.0274645342
 H         -4.5306510525        1.4589748970        1.3342871363
 H         -2.1559266838        0.8675501953        1.3716841017
 H         -0.2005720105        0.8199662474       -0.1214864149
 H          3.3227510693        2.6449339384       -0.3365507722
 H          5.1838703659        4.2909777693       -0.5345355971
 H          9.1951966503        2.2390289015        0.4061844553
 H         11.1814687287        3.7618837714        0.1963447543
 H          8.9684069617        6.6506805951       -1.6287186535
 H          6.8970109295        5.2937684209       -1.5296039649
 H          9.9218580916       -0.7157415267       -0.6523211851
 H         12.4029347469       -1.1004947875       -0.5721950176
 H         11.9422808171       -4.6767568316        1.3179263227
 H          9.4726261737       -4.4769241262        1.3503661063
 H          7.4390021330       -4.4264280159        0.4679675504
 H          5.0098601516       -3.8759735832        0.3972943715
 H          1.0240537818       -3.9609267885        0.4356475985
 H         -2.9167891673       -2.3574676654       -1.3304218720
 H         -5.2819018461       -1.7621046407       -1.3773162328
 H         -8.5400036773        0.9744354155        1.3868751049
 H         -9.3236413317        3.2484563207        1.6867764612
 H         -9.2829512319        5.3629177011        2.5501356820
 H         -9.7442689192        6.7889948655        1.6279052495
 H        -10.3146518011        5.2049700984        1.1173664637
 H         -8.8932086297        7.2064056645       -0.6285706767
 H         -7.6850263588        6.1605562839       -1.3710873101
 H         -9.3435397018        5.5936633434       -1.1896580270
 H         -7.4078503336        7.4496906809        1.4490281789
 H         -6.2011059303        6.4140566152        0.6916763671
 H         -6.8379001862        6.0008149762        2.2822114439
 H         -6.0932376907        4.6702238157       -0.7271443773
 H         -5.3212885732        2.3870400055       -1.0338405450
 H         -8.6697529590        0.3635353812       -1.4330574692
 H        -10.3359184251       -1.3727793742       -1.7300957546
