101
 energy: -152.475776895022 gnorm: 0.000068015186 xtb: 6.7.1 (edcfbbe)
C           -6.92743146714347       -6.18733514513601       -1.81702428845250
C           -6.87454545288759       -5.79413038156885       -0.33251259190991
C           -8.29275315683097       -5.80597351076140        0.25834623514404
C           -6.03767123878077       -6.83977065118861        0.41052545536917
C           -6.30091370729901       -4.39267625759212       -0.21435633404354
C           -6.95669329555871       -3.32477768768399       -0.82941678024559
C           -6.47898292867001       -2.03501558377845       -0.75059748572093
C           -5.30821977533902       -1.75960565848813       -0.04081046018522
N           -4.82036220107395       -0.45533917679734        0.05626166761055
C           -3.44793244205278       -0.21415724983786        0.04731256440545
C           -2.59152966672508       -0.97400014995715       -0.75423885424472
C           -1.24330452208632       -0.69112127162919       -0.79460365782980
C           -0.70728682081987        0.36016511634734       -0.04970969713171
C            0.71920645974602        0.69609745695152       -0.13555464713278
C            1.66734956132182       -0.31327616465057       -0.02415965851720
C            3.03339783010179       -0.04006133955105       -0.02672936819224
N            3.95141796033128       -1.00594956291791        0.08711239137455
C            5.24607304026196       -0.71778049918052        0.10220308252274
C            6.22078961465283       -1.75642316903011        0.22645761485740
C            5.78792292906281       -3.09247193393572        0.31680904770043
C            6.67945036658675       -4.12115855399990        0.43760843813268
C            8.05778383305634       -3.83134903889060        0.47291793587140
C            8.99258738958928       -4.87783928621462        0.59906182929285
N            9.75384881692908       -5.73284640164833        0.70224418288941
C            8.50306145925778       -2.52042668856003        0.38416745984543
C            7.60708869095749       -1.45573212903187        0.25958439771450
C            8.03840607354445       -0.07891245910299        0.16336942716627
C            9.38386857583821        0.29604661772790        0.19678466783375
C            9.76447704151435        1.62663872149480        0.10004054265713
C           11.13123424789241        1.96622618636990        0.13910215349267
N           12.24543585481907        2.24671020782536        0.17096962751585
C            8.79422411562621        2.63908324203388       -0.03702148328584
C            7.47304694447780        2.29131880903400       -0.06993098546664
C            7.06803440814621        0.94730160012000        0.02912320934522
C            5.67224654800986        0.63919574875860       -0.00318392613954
N            4.77275113535394        1.60577424670080       -0.12507659690818
C            3.46454030396112        1.32860318610287       -0.14470159889681
C            2.50095034960540        2.32501981507698       -0.28098733353228
C            1.14333759983700        2.03189406834892       -0.28625294171175
C            0.18366489787122        3.12245791183178       -0.50014086336660
C            0.28272729044709        4.32927788092613        0.19165009976625
C           -0.64919272184251        5.32520705116675       -0.04443828941600
C           -1.65549857937215        5.08222087958907       -0.96669301491462
N           -1.74711296153967        3.95345767148278       -1.65380549314125
C           -0.85247096857083        3.01084657529499       -1.43176718085235
C           -1.56030963956905        1.08381864744114        0.78693178573471
C           -2.90677818747952        0.80513784982463        0.83708074589279
C           -5.70644124011140        0.62136341421289        0.14587038908694
C           -5.41510104732817        1.83601005555491       -0.47953896913988
C           -6.29210012800743        2.89383935475862       -0.38433207433349
C           -7.49009203845620        2.79660186288086        0.32588685762259
C           -8.41962841474343        3.99579576243920        0.39681604890528
C           -7.67367769924273        5.16679446431987        1.05467259342773
C           -9.68607726208745        3.71543150657911        1.21127693527445
C           -8.84163604135643        4.38498207542769       -1.02848941642713
C           -7.76960226782963        1.57968959200228        0.94218598615559
C           -6.89972517229920        0.51012686083903        0.85892962861200
C           -4.64048237551538       -2.81812362720010        0.57488516515883
C           -5.13211940050480       -4.10555419952847        0.48574971877118
H           -7.31816225968919       -7.19729101034009       -1.92037620176448
H           -5.92984003823708       -6.15834262982989       -2.25110299050404
H           -7.56649934792486       -5.51636400362525       -2.38425854336384
H           -8.71082732564557       -6.80863910311439        0.20107713970631
H           -8.26889090330956       -5.50231190861066        1.30316296414624
H           -8.95408354764114       -5.13198025286855       -0.27887598962227
H           -6.49645654720076       -7.81939852707870        0.29283260731223
H           -5.02839222300373       -6.89380174473907        0.00869725403104
H           -5.98859032179868       -6.61963330543856        1.47461254181961
H           -7.85978078711001       -3.49920663137571       -1.39331466022284
H           -6.99961314614356       -1.23210829581663       -1.25108068728006
H           -2.99772592748690       -1.76531873860569       -1.36637214318316
H           -0.59714801977728       -1.26266661196984       -1.44413100244264
H            1.35685218648017       -1.33929600637730        0.10229063652905
H            4.72525307925379       -3.27767050854193        0.28681913205753
H            6.34786800215504       -5.14619845129714        0.50641920659747
H            9.56718885228263       -2.34566183115486        0.41364981383402
H           10.16115848383227       -0.44483625082850        0.30031209492255
H            9.10548460546256        3.67003346087246       -0.11266601686089
H            6.70283290937220        3.04030235897629       -0.17233731352171
H            2.84051465076609        3.34166889890604       -0.41095767769302
H            1.06940691160193        4.47048062790436        0.91944986482032
H           -0.60040800671538        6.26619362411544        0.48153262497025
H           -2.41957810430260        5.81944886623153       -1.17547155084914
H           -0.95546001879830        2.11831563794729       -2.03556266574320
H           -1.15399780327385        1.86104748176429        1.41647124687435
H           -3.55232253252381        1.36887314499481        1.49366207741274
H           -4.50523436735638        1.94032051955524       -1.05143515025420
H           -6.03248529220460        3.81200582605062       -0.88768098487006
H           -6.79209344037502        5.44720170856346        0.48493781261669
H           -7.35872519278175        4.89648907124150        2.06081904818715
H           -8.32674439033047        6.03441041381499        1.11992923652595
H          -10.26608357428182        2.90809658611783        0.76997401306459
H          -10.31032863639031        4.60654139433968        1.22546335153964
H           -9.44326923476825        3.46170762941449        2.24073254931893
H           -9.34908984171326        3.55275365300085       -1.51244749801854
H           -7.98448035638640        4.66216936295780       -1.63565454015931
H           -9.52347577748449        5.23200821375944       -0.99624473823494
H           -8.67504442311590        1.44969320658384        1.51114960696435
H           -7.13472697024545       -0.41579730944649        1.36286257164005
H           -3.74114424773140       -2.62294699647788        1.14038909085436
H           -4.58700559563542       -4.88855369365483        0.98605197687938
