107
 energy: -163.702745845854 gnorm: 0.000084866948 xtb: 6.7.1 (edcfbbe)
C          -11.59125568661016       -3.49384334561299       -1.61272379567729
C          -10.42666567079233       -3.92370577426866       -0.71526422053143
C           -9.76277385158472       -5.15555743107153       -1.34883570800135
C          -10.99591855776885       -4.29226904437119        0.66311027697430
C           -9.38251926679536       -2.83087985435761       -0.54591709089634
C           -8.26101706287272       -3.06670426921041        0.24795024223243
C           -7.28670122781394       -2.10836157143520        0.43524413522848
C           -7.39571510076422       -0.86502416550544       -0.18356980686734
N           -6.41501975163281        0.12520985803953        0.00187091759570
C           -5.07274600407613       -0.20462044130105        0.03254752232056
C           -4.16214523258117        0.55160922045035        0.78164915568311
C           -2.82908643317624        0.21457451988484        0.81481293841236
C           -2.34921890465153       -0.90111703900703        0.12378355830611
C           -0.93348228721206       -1.25871777516506        0.17749128347304
C            0.04630806388969       -0.29444055443903        0.10103632161443
C            1.40959706448684       -0.63526453676924        0.12008593878101
N            2.34127722277736        0.32894171194056        0.02497701289759
C            3.60950885385472       -0.03408520815522        0.02980608198922
C            4.62937505371082        0.98246423698924       -0.07959952933626
C            4.30856797764510        2.34103380457086       -0.18335397431324
C            5.31967310713661        3.26704332553823       -0.29275640221526
C            6.65035636716021        2.81688127640659       -0.29960145224934
C            7.78910374710534        3.73972310272655       -0.41819078227217
C            9.03357854824962        3.36883531390689        0.09314775721450
C           10.09256634304548        4.25200352025685       -0.02812232343152
N            9.99224156644494        5.43759914388501       -0.60911883017234
C            8.81580741626173        5.78567651145509       -1.10333760350566
C            7.68693227960595        4.98458060051877       -1.03820237970467
N            6.95785325305379        1.53457291492452       -0.18300362325159
C            5.99342089606290        0.62928006293087       -0.07616176023872
C            6.38130847343198       -0.76884684533812        0.04684118586576
N            7.67681585140669       -1.05525541984942        0.06130945992863
C            8.07427125204260       -2.31309475698761        0.17268939783431
C            9.52914404057215       -2.52584191843181        0.18602330553572
C           10.37046130395161       -1.57534940063083       -0.39425251425276
C           11.73692443997147       -1.79467630888116       -0.37273081849538
N           12.29699836845160       -2.86275110742839        0.17406852111123
C           11.50138494597676       -3.75862480651776        0.73439918504437
C           10.12085134834690       -3.64448658553494        0.77185551421449
C            7.16061785174059       -3.37733031774941        0.25473314606251
C            5.81434398986069       -3.09673827382761        0.24254442245254
C            5.39049563708897       -1.76591140488077        0.14653868075131
C            3.99216113077575       -1.40989458414893        0.13850892044242
N            3.08589957586840       -2.36599211614306        0.23366230042740
C            1.79491728396952       -2.00761095701814        0.22478154799515
C            0.79281967259510       -2.99051807138740        0.33363536473921
C           -0.53377510961580       -2.62554384681080        0.31383183990443
C           -1.49395486846991       -3.64500366034239        0.51502478545145
N           -2.22096663556639       -4.50892933732202        0.72164595196565
C           -3.25582557945348       -1.64777257837325       -0.63239694334775
C           -4.58673569311540       -1.30422330843230       -0.68554831563980
C           -6.83223909194435        1.45781429313867        0.16749555019193
C           -7.94469647384446        1.75933556632099        0.94552631484834
C           -8.36541878845151        3.06804017371252        1.09482584315228
C           -7.69529016029094        4.12163321920921        0.48309201088108
C           -8.12385494922964        5.57404158054044        0.62521946826289
C           -9.34889419273788        5.74182046436928        1.52924248673626
C           -8.47311609792782        6.13053878319632       -0.76339091163206
C           -6.96724692662082        6.38192076799655        1.23294993720421
C           -6.58341010482691        3.80428735367362       -0.29568930550192
C           -6.15635767408849        2.50262106354734       -0.45842013087865
C           -8.51008520947517       -0.61521961628687       -0.97731152439961
C           -9.48368822078085       -1.58208096800927       -1.14866834949573
H          -11.24474198539729       -3.24804933067391       -2.61401985572504
H          -12.30400055564233       -4.31198443653505       -1.69620981534700
H          -12.11287819312104       -2.63617422104448       -1.19390112528174
H           -8.96308493501330       -5.54171795042992       -0.72269377357713
H          -10.49733992394058       -5.94590372464622       -1.48888336284454
H           -9.34212327471562       -4.89968567607795       -2.31954413329263
H          -10.22131165034668       -4.67089161712657        1.32425389952572
H          -11.44677782244143       -3.41873624725358        1.13029690431664
H          -11.75932125275414       -5.06048354815138        0.55881402851586
H           -8.13831370072632       -4.01755496983840        0.74389486205687
H           -6.43518179769637       -2.32001410731489        1.06611928188781
H           -4.51685654622405        1.39744167385750        1.35121218255715
H           -2.14985941951641        0.79541524066764        1.42118622826229
H           -0.21316082976385        0.74748781746523       -0.00410163742061
H            3.26881964002658        2.63059393064369       -0.17307444511305
H            5.09502847445658        4.31971982130388       -0.35223545794495
H            9.14727206270491        2.40958269727449        0.57118167574016
H           11.07321024720063        4.00452184605672        0.35737549094213
H            8.77968428250167        6.75867526391759       -1.57662786249263
H            6.76227508902103        5.31890789125234       -1.48135086238472
H            9.94457637660475       -0.69498444701015       -0.84720109660093
H           12.42366811510188       -1.08373666267440       -0.81380055306139
H           12.00025750660808       -4.61122854907155        1.17741565264826
H            9.53048033937230       -4.40043180347581        1.26496474219874
H            7.50698935357921       -4.39689201208240        0.30629236263456
H            5.06969003124756       -3.87592939680177        0.30289077404813
H            1.08751394003841       -4.02354276719440        0.44372252565560
H           -2.90551989350419       -2.48449612772322       -1.21902886797527
H           -5.26444342535429       -1.88253556912072       -1.29505993085219
H           -8.48196021472595        0.96059542401579        1.43627171393537
H           -9.23131882342065        3.25088246782426        1.70952281483422
H           -9.14697746868013        5.37831312295889        2.53434917678376
H           -9.60476528620919        6.79724418228518        1.59944065982687
H          -10.21009296385109        5.21480334882152        1.12477019235538
H           -8.79859275404401        7.16545416885406       -0.68062666668893
H           -7.61697410214307        6.09565242735485       -1.43157503991743
H           -9.27833372033342        5.55026664935408       -1.20998933618151
H           -7.26394026939058        7.42084951331267        1.36117405733279
H           -6.08689388273358        6.35655172789556        0.59663970462523
H           -6.69659996166938        5.97779426564085        2.20664977784112
H           -6.03507428212437        4.58580254150194       -0.79952138902823
H           -5.29732258526470        2.28691181934066       -1.07750649861287
H           -8.61278165729535        0.34418346813425       -1.46375512956934
H          -10.32696198142513       -1.34111459239680       -1.77478746900185
