  101
       -152.45246137
 C         -6.3017017403       -6.9066127821        0.2167295108
 C         -7.0288340204       -5.7992643507       -0.5510203716
 C         -6.9703772395       -6.1364693114       -2.0478453081
 C         -8.4904068107       -5.7724548243       -0.0814189196
 C         -6.4108898716       -4.4286500470       -0.3273428846
 C         -6.9654133608       -3.3135391009       -0.9528478389
 C         -6.4413742443       -2.0492440974       -0.7852627358
 C         -5.3303687643       -1.8500106825        0.0313538949
 N         -4.7945161798       -0.5702682891        0.2196789368
 C         -3.4202434804       -0.3795598304        0.2780186793
 C         -2.5465512425       -1.1660371340       -0.4768732725
 C         -1.1948442404       -0.8987860642       -0.4818994982
 C         -0.6716093708        0.1639918669        0.2523267977
 C          0.7427491621        0.5333012831        0.1286501056
 C          1.7287584531       -0.4152968449        0.2320707150
 C          3.0872352004       -0.0609278933        0.1297944224
 N          4.0366932663       -0.9985437453        0.2387268925
 C          5.2979218886       -0.6166582293        0.1442165689
 C          6.3394676676       -1.6133960782        0.2594549558
 C          5.9833388057       -2.9509480106        0.4667378893
 C          6.9404524928       -3.9273658739        0.5808893334
 C          8.2908595602       -3.5661609143        0.4876613596
 C          9.2943016898       -4.5554791607        0.6012226283
 N         10.1086500420       -5.3576999995        0.6927648194
 C          8.6584259997       -2.2431321607        0.2828010833
 C          7.6957779661       -1.2385899969        0.1631490898
 C          8.0501925010        0.1579014453       -0.0573968368
 C          9.3754485198        0.5841599247       -0.1662420849
 C          9.6819978224        1.9210591576       -0.3816895170
 C         11.0356456693        2.3142802123       -0.4884503213
 N         12.1338473049        2.6335823171       -0.5752396777
 C          8.6659015159        2.8789886277       -0.4946438122
 C          7.3590358744        2.4753259708       -0.3879472233
 C          7.0353361374        1.1309270414       -0.1712599674
 C          5.6451212428        0.7486470493       -0.0677466526
 N          4.7167752026        1.6837106588       -0.1745838208
 C          3.4368682734        1.3090025237       -0.0797481102
 C          2.4109559337        2.2677212674       -0.1998418811
 C          1.0938572666        1.8996203978       -0.1118389742
 C          0.0431916187        2.9093188022       -0.3106227399
 C          0.0562091306        4.1176197696        0.3811350459
 C         -0.9726389672        5.0223781557        0.1816492090
 C         -1.9845819305        4.6840343629       -0.7028785519
 N         -1.9899646167        3.5568521059       -1.3960577303
 C         -1.0045618633        2.7027977625       -1.2126885696
 C         -1.5365547902        0.8980564088        1.0655375197
 C         -2.8847927538        0.6289514880        1.0849203990
 C         -5.6481121833        0.5417763348        0.2755733160
 C         -5.2896285340        1.7489437700       -0.3222364746
 C         -6.1384008389        2.8335077557       -0.2596204826
 C         -7.3725469702        2.7675789136        0.3844904981
 C         -8.2678010299        3.9955959861        0.4170901953
 C         -7.5173230407        5.1436965015        1.1069797348
 C         -9.5740707219        3.7543188497        1.1784556814
 C         -8.6189173698        4.3962305208       -1.0227696668
 C         -7.7208692223        1.5561018291        0.9697072520
 C         -6.8767612913        0.4620808547        0.9227755438
 C         -4.7689400530       -2.9549549393        0.6641824571
 C         -5.3006142241       -4.2176553184        0.4817265814
 H         -6.7844412484       -7.8613564573        0.0189542635
 H         -6.3379937093       -6.7279728909        1.2889223864
 H         -5.2634930332       -6.9845762336       -0.0975178562
 H         -7.3923152583       -7.1231137094       -2.2265956370
 H         -7.5288223273       -5.4155388420       -2.6382834047
 H         -5.9387324808       -6.1342983847       -2.3936062287
 H         -8.9462294495       -6.7505723228       -0.2190954987
 H         -8.5411460078       -5.5132997093        0.9741543994
 H         -9.0726855650       -5.0443484215       -0.6391573211
 H         -7.8247305552       -3.4262842923       -1.5962469861
 H         -6.8888159950       -1.2056353599       -1.2900118793
 H         -2.9425931697       -1.9644871006       -1.0865118729
 H         -0.5371858020       -1.4853131395       -1.1069725438
 H          1.4846971789       -1.4502795684        0.4176737800
 H          4.9325734201       -3.1861658548        0.5331059230
 H          6.6715069814       -4.9607017194        0.7400542148
 H          9.7110334707       -2.0165423843        0.2185142654
 H         10.1936643322       -0.1141543905       -0.0868169559
 H          8.9214681305        3.9142117716       -0.6632017662
 H          6.5467382684        3.1805927489       -0.4689650780
 H          2.6932041644        3.2917289971       -0.3943949355
 H          0.8508770946        4.3288272025        1.0832601467
 H         -0.9935376213        5.9631053798        0.7093851524
 H         -2.8252880754        5.3426571422       -0.8749311368
 H         -1.0415240210        1.8075792317       -1.8197694183
 H         -1.1412813905        1.6774732939        1.7005671792
 H         -3.5438427686        1.2089412059        1.7134317069
 H         -4.3451132982        1.8385781255       -0.8386676888
 H         -5.8232717774        3.7478474512       -0.7382046232
 H         -6.6079387025        5.4003028823        0.5710932528
 H         -7.2466487394        4.8593525508        2.1218329546
 H         -8.1475621837        6.0292190710        1.1529517653
 H        -10.1604503913        2.9672000533        0.7103085500
 H        -10.1699015069        4.6647823887        1.1730602380
 H         -9.3793004230        3.4864428392        2.2143231208
 H         -7.7268789583        4.6300719909       -1.5970199791
 H         -9.2640880349        5.2721936576       -1.0216261755
 H         -9.1418023789        3.5830690991       -1.5220678139
 H         -8.6615495627        1.4439653868        1.4833709466
 H         -7.1715441327       -0.4652657039        1.3922507375
 H         -3.9114273476       -2.8200567512        1.3075904487
 H         -4.8304059370       -5.0405368272        0.9946415617
