  107
       -163.58924926
 C        -11.5767157942       -3.6134307967       -1.2905901475
 C        -10.3221186177       -4.0020935486       -0.5039454748
 C         -9.6464296835       -5.1774460959       -1.2247778178
 C        -10.7545347012       -4.4359376218        0.9040378346
 C         -9.3258997321       -2.8612635243       -0.3889206267
 C         -8.1392182197       -3.0542047945        0.3177935157
 C         -7.1996282173       -2.0551252796        0.4477790698
 C         -7.4112986816       -0.8082808399       -0.1413175697
 N         -6.4582568121        0.2084428762       -0.0241124378
 C         -5.1024202512       -0.1124473118       -0.0266273752
 C         -4.1965310245        0.6013842243        0.7617329154
 C         -2.8630066977        0.2557254008        0.7764336920
 C         -2.3920211279       -0.8184548586        0.0214775803
 C         -0.9807015476       -1.2099956587        0.0764806854
 C          0.0198884314       -0.2551149432        0.0060913889
 C          1.3731137164       -0.6018675384        0.0388541845
 N          2.3338770065        0.3103838383       -0.0404310086
 C          3.6183128412       -0.0310000608       -0.0142996299
 C          4.6410021675        0.9525000597       -0.1023072320
 C          4.3443439839        2.3235339261       -0.2078352294
 C          5.3629381914        3.2342130458       -0.2953653096
 C          6.6978782328        2.7746868871       -0.2795790410
 C          7.8517493852        3.6750562988       -0.3715789928
 C          9.1138861318        3.2074777699        0.0044147156
 C         10.1969720955        4.0615936390       -0.0867698859
 N         10.1060826972        5.3110733501       -0.5147107491
 C          8.9161184028        5.7551000213       -0.8794864323
 C          7.7632640791        4.9891287265       -0.8315009407
 N          6.9813101742        1.4907134651       -0.1656402278
 C          6.0120509487        0.5924084470       -0.0785836201
 C          6.3740590324       -0.7994642479        0.0436847961
 N          7.6612305208       -1.1154998451        0.0743472595
 C          8.0376496420       -2.3754517804        0.1844123857
 C          9.4871824472       -2.6044203745        0.2129223889
 C         10.3461683002       -1.5907916071       -0.2190569998
 C         11.7104377617       -1.8128184390       -0.1859965337
 N         12.2548755920       -2.9433640371        0.2355950266
 C         11.4464209167       -3.9017599129        0.6526445229
 C         10.0657737723       -3.7898050085        0.6658709996
 C          7.0957321086       -3.4230078135        0.2550565174
 C          5.7596741456       -3.1184278975        0.2280711898
 C          5.3538644420       -1.7775841784        0.1275635521
 C          3.9748062746       -1.4123334570        0.1021359700
 N          3.0265414279       -2.3295006018        0.1841727707
 C          1.7334731519       -1.9972343815        0.1591243582
 C          0.7234160341       -2.9459802489        0.2516991314
 C         -0.6201714360       -2.5672326059        0.2106302791
 C         -1.5982500099       -3.5649648895        0.3771284053
 N         -2.3670579104       -4.4040639936        0.5429609821
 C         -3.2952893983       -1.5126308750       -0.7836865740
 C         -4.6267502075       -1.1642261845       -0.8136182382
 C         -6.8691094709        1.5370469054        0.1096671008
 C         -8.0086281187        1.8627061858        0.8415663540
 C         -8.4147325568        3.1773085372        0.9639989523
 C         -7.7057562327        4.2165641401        0.3708883706
 C         -8.1196134404        5.6742321643        0.4821251680
 C         -9.3881764689        5.8654337987        1.3177554750
 C         -8.3857648603        6.2264951200       -0.9258402177
 C         -6.9846752964        6.4673445061        1.1458365308
 C         -6.5652130822        3.8776908834       -0.3564896382
 C         -6.1501989217        2.5704972837       -0.4912938897
 C         -8.5924790588       -0.6022554960       -0.8498436282
 C         -9.5287109373       -1.6118147356       -0.9650106427
 H        -11.3282644841       -3.3312059003       -2.3110531279
 H        -12.2540535000       -4.4636627129       -1.3342819978
 H        -12.1013273909       -2.7909975540       -0.8096531749
 H         -8.7780851545       -5.5319419706       -0.6766226125
 H        -10.3453890450       -6.0043526450       -1.3286834058
 H         -9.3215563975       -4.8731973111       -2.2176724861
 H         -9.9100200983       -4.7907887464        1.4877711973
 H        -11.2082953118       -3.6001419338        1.4326920625
 H        -11.4840885939       -5.2400792360        0.8391308433
 H         -7.9374425183       -4.0040629928        0.7875059603
 H         -6.2959696650       -2.2338312786        1.0108919850
 H         -4.5531665802        1.4130856457        1.3784162194
 H         -2.1791372932        0.7982307296        1.4122593091
 H         -0.2315073843        0.7886052895       -0.1037250813
 H          3.3063476953        2.6235756020       -0.2143435015
 H          5.1475141125        4.2890266809       -0.3575362667
 H          9.2168317058        2.1943965375        0.3579168246
 H         11.1899058786        3.7385038258        0.1975442638
 H          8.8880873819        6.7785029110       -1.2310807011
 H          6.8276615471        5.4102378743       -1.1646373933
 H          9.9294691870       -0.6601758521       -0.5685449463
 H         12.4089665131       -1.0543533185       -0.5143364456
 H         11.9329734133       -4.8057776034        0.9957078886
 H          9.4666203168       -4.6060808873        1.0380600136
 H          7.4194586995       -4.4499526494        0.3122722104
 H          4.9981040400       -3.8830903377        0.2796057678
 H          0.9919821344       -3.9851184301        0.3628335920
 H         -2.9453028793       -2.3198726940       -1.4084436442
 H         -5.3118083325       -1.7029035746       -1.4504169237
 H         -8.5721288170        1.0775207214        1.3239120496
 H         -9.2999201795        3.3782638298        1.5444529752
 H         -9.2437368641        5.5121779976        2.3362030720
 H         -9.6359702235        6.9238736745        1.3623614925
 H        -10.2323947864        5.3424805273        0.8742984179
 H         -8.6994004593        7.2663241918       -0.8662327404
 H         -7.4963419994        6.1750892579       -1.5476094584
 H         -9.1746673005        5.6554330675       -1.4111006590
 H         -7.2701712318        7.5117214025        1.2503457287
 H         -6.0718284591        6.4220448995        0.5585030810
 H         -6.7743042910        6.0665793229        2.1353262200
 H         -5.9849047172        4.6478834167       -0.8410356348
 H         -5.2708667995        2.3380280189       -1.0739468519
 H         -8.7696218883        0.3527329657       -1.3227319426
 H        -10.4236597354       -1.4062476389       -1.5287702404
