  106
       -158.42794665
 C          0.4860616885        1.7870447336        4.5099655051
 C         -0.2037710715        0.6475540934        4.8880413733
 C         -1.2703825469        0.1968719785        4.1336334150
 C         -1.6699547855        0.8823679945        2.9892057805
 C         -2.7580536749        0.3818309043        2.1373764486
 C         -3.6140611791        1.2576326474        1.4781651958
 C         -4.5849439340        0.7862028550        0.6026071654
 C         -5.4679978481        1.7238563449       -0.1063607956
 C         -6.8242194406        1.4502919444       -0.2616237881
 C         -7.6469773591        2.3332063578       -0.9361903179
 C         -7.1259161306        3.4983713656       -1.4734330793
 C         -5.7767685491        3.7769077047       -1.3301490552
 C         -4.9540510734        2.8988380488       -0.6498728775
 C         -4.6691525171       -0.5798993539        0.3541110546
 C         -3.7998244438       -1.4679078558        0.9745097524
 C         -3.7710756152       -2.8812446495        0.5606585319
 C         -4.9461657907       -3.6154078882        0.4838156974
 C         -4.9344279025       -4.9506957215        0.1194968553
 C         -3.7292822461       -5.5711769148       -0.1735510349
 C         -2.5509970610       -4.8568890177       -0.1037792640
 C         -2.5429790881       -3.5027830650        0.2436868989
 C         -1.2835616683       -2.7776853730        0.3304646032
 C         -0.2342346119       -3.3201648484        1.0822626248
 C          0.8323303765       -2.5573920942        1.4768738376
 C          0.9150058530       -1.1769275540        1.1220136918
 C          1.9077971732       -0.3378111952        1.6221192859
 C          2.0018283105        0.9816477481        1.2053982695
 C          1.1414154480        1.4871474486        0.2311134229
 C          1.3036575398        2.8048503108       -0.3307631514
 C          2.5720119202        3.5155146804       -0.2616239045
 C          2.5996408740        4.8734593055        0.0700178179
 C          3.7871261539        5.5736614960        0.1232585194
 C          4.9822964740        4.9348102938       -0.1713020302
 C          4.9745656741        3.5955191578       -0.5206150151
 C          3.7901056567        2.8749033652       -0.5805990797
 C          3.8012138932        1.4575235229       -0.9815336645
 C          2.8731930681        0.9725541966       -1.8971819468
 C          2.7353786626       -0.3925836243       -2.1233993900
 C          1.6371217219       -0.8920812745       -2.9627579077
 C          0.9547887388       -2.0515374993       -2.6004539336
 C         -0.1224982612       -2.4979473225       -3.3415072020
 C         -0.5351021008       -1.7972857841       -4.4616664422
 C          0.1413463791       -0.6492445949       -4.8379916933
 C          1.2162379509       -0.1991170396       -4.0952185855
 C          3.5938530154       -1.2694856755       -1.4685353112
 C          4.5758317979       -0.7991896906       -0.6050613907
 C          5.4610230750       -1.7395790548        0.0977607802
 C          4.9444154419       -2.9057256902        0.6574166122
 C          5.7693984016       -3.7874469834        1.3300842056
 C          7.1234201665       -3.5216443632        1.4488813949
 C          7.6470766156       -2.3652935898        0.8954132583
 C          6.8220504528       -1.4783101190        0.2290460667
 C          4.6709998089        0.5675253149       -0.3644754548
 C          0.2531258830        3.3505890804       -1.0788187967
 C         -0.8194876198        2.5918221420       -1.4645089399
 C         -0.9052173815        1.2117492823       -1.1073902016
 C         -1.8988323674        0.3732667153       -1.6066584534
 C         -1.9899145401       -0.9477630238       -1.1941976129
 C         -1.1283550465       -1.4553076938       -0.2217091526
 C         -0.0526303526       -0.6503420346        0.2298983012
 C          0.0624693988        0.6840797313       -0.2160502520
 C         -2.8846080705       -0.9828368386        1.9028540616
 C         -0.9755603014        2.0340513717        2.6256002220
 C          0.0946717435        2.4797170645        3.3772307146
 H          1.3246959287        2.1332812740        5.0959936823
 H          0.0921199519        0.1066060219        5.7755128382
 H         -1.8102162623       -0.6863580843        4.4432691343
 H         -3.5432451050        2.3182070318        1.6688997073
 H         -7.2367379811        0.5484567213        0.1674338629
 H         -8.6992788468        2.1127136631       -1.0432827188
 H         -7.7686827221        4.1862972050       -2.0027703904
 H         -5.3651062896        4.6825608503       -1.7521421548
 H         -3.8987817566        3.1094795306       -0.5527368768
 H         -5.3705855396       -0.9455745355       -0.3821177872
 H         -5.8801117382       -3.1360204244        0.7409737558
 H         -5.8585714079       -5.5071666431        0.0719903991
 H         -3.7119324620       -6.6128548702       -0.4592179091
 H         -1.6154142279       -5.3366421858       -0.3540295867
 H         -0.3223228185       -4.3392444803        1.4344083897
 H          1.6015280179       -2.9732384239        2.1112349353
 H          2.6209124419       -0.7264337391        2.3347189747
 H          2.7648370802        1.6203529759        1.6243917389
 H          1.6720059930        5.3678964887        0.3210400718
 H          3.7848256779        6.6187546639        0.3966760607
 H          5.9137426463        5.4799097369       -0.1364355017
 H          5.9006190904        3.1017662398       -0.7789671846
 H          2.2156527445        1.6643416677       -2.4015033131
 H          1.2519368217       -2.5910337436       -1.7134935828
 H         -0.6473591087       -3.3925160555       -3.0385146406
 H         -1.3792291606       -2.1440906233       -5.0393612022
 H         -0.1711321248       -0.1014612288       -5.7154056793
 H          1.7458023133        0.6899094790       -4.4056667320
 H          3.5167188122       -2.3306949502       -1.6529806990
 H          3.8855693824       -3.1061057433        0.5789538335
 H          5.3556904595       -4.6857936706        1.7654933907
 H          7.7679670723       -4.2126588975        1.9718243279
 H          8.7033109435       -2.1552041078        0.9828524075
 H          7.2362804381       -0.5836891740       -0.2132962545
 H          5.3831266462        0.9325883195        0.3618050964
 H          0.3453416984        4.3673125013       -1.4366186702
 H         -1.5905006558        3.0094933166       -2.0955001542
 H         -2.6128537776        0.7624152307       -2.3180883469
 H         -2.7503563931       -1.5869091478       -1.6169873963
 H         -2.2277790181       -1.6727316779        2.4108203142
 H         -1.2578435420        2.5669471252        1.7297515270
 H          0.6299375911        3.3677499211        3.0733883398
