  94
       -157.67997074
 C          9.9090972028        2.9597291955        0.2563484906
 C          9.7013539082        2.0506456782       -0.7680594209
 C          8.5337535665        1.3137632467       -0.8194975429
 C          7.5523821848        1.4758449985        0.1560562730
 C          6.3009829756        0.7045292963        0.1034974292
 C          5.0920991930        1.3792858338        0.2205035921
 C          3.8688245842        0.7222103581        0.1285725858
 N          2.7021296754        1.3596560203        0.2417052556
 C          1.5497477257        0.7172553867        0.1283969313
 C          0.3082139534        1.4071698084        0.2085294719
 C          0.2436403021        2.7994612038        0.4086349700
 C         -0.9679110705        3.4302978493        0.4378059827
 C         -2.1397339106        2.6572926057        0.2353331983
 N         -3.3845130332        3.2840856680        0.2260713285
 C         -4.5283334372        2.7393729934        0.8380031330
 C         -4.6634355667        1.3923188675        1.1532138569
 C         -5.8062582596        0.9257546417        1.7798175827
 C         -6.8350430894        1.7905703713        2.1051502019
 C         -6.7172930421        3.1354593000        1.7992485859
 C         -5.5762191946        3.6091949411        1.1736139289
 O         -5.5277789360        4.9567623258        0.9148249502
 C         -4.5932850220        5.3674330993        0.0068651278
 C         -4.7383600611        6.6313665034       -0.5417474104
 C         -3.8412264866        7.0809601489       -1.4953259056
 C         -2.8241989056        6.2478803474       -1.9268346126
 C         -2.6744656977        4.9856727957       -1.3799342156
 C         -3.5279405744        4.5415690093       -0.3740243057
 N         -2.0977999010        1.3555641537        0.0785804225
 C         -0.9235602386        0.7181857680        0.0839392492
 C         -0.9227605268       -0.7057320671       -0.0622549133
 N         -2.0958097819       -1.3460483012       -0.0619798591
 C         -2.1320440032       -2.6482742398       -0.2168301484
 N         -3.3735567576       -3.2813568585       -0.2125794306
 C         -3.5101998046       -4.5419238116        0.3824813606
 C         -2.6633411423       -4.9783446702        1.3972837012
 C         -2.8032263174       -6.2444055197        1.9378353837
 C         -3.8039683239       -7.0889252582        1.4906678293
 C         -4.6955305239       -6.6473220567        0.5280731266
 C         -4.5604129840       -5.3794645574       -0.0141400768
 O         -5.4885053344       -4.9773549413       -0.9324732679
 C         -5.5473128622       -3.6302315735       -1.1920663747
 C         -6.6829151109       -3.1685154596       -1.8363060433
 C         -6.8098713169       -1.8248602850       -2.1437378688
 C         -5.7964674927       -0.9488262666       -1.8006012385
 C         -4.6589134042       -1.4033056022       -1.1557703536
 C         -4.5144540793       -2.7491570863       -0.8401689596
 C         -0.9571609047       -3.4183040037       -0.4129062198
 C          0.2522165506       -2.7841145600       -0.3801793535
 C          0.3107998394       -1.3915125306       -0.1814838213
 C          1.5501209436       -0.6986253742       -0.0999109261
 N          2.7021177661       -1.3407697349       -0.2142219124
 C          3.8683619032       -0.7027171124       -0.1064419191
 C          5.0900368628       -1.3609560649       -0.2064847453
 C          6.3000015338       -0.6870499725       -0.1004426822
 C          7.5480463268       -1.4629653322       -0.1651173617
 C          7.7427885340       -2.3936515333       -1.1828653433
 C          8.9073629225       -3.1360030121       -1.2440719517
 C          9.8906914509       -2.9678037855       -0.2837294276
 C          9.7001178894       -2.0547492316        0.7405172138
 C          8.5395123116       -1.3072907172        0.8011040091
 C          7.7634959405        2.4039104840        1.1727537359
 C          8.9352353429        3.1357637108        1.2248500034
 H         10.8249936282        3.5305935300        0.2979997865
 H         10.4537928240        1.9160940574       -1.5315647313
 H          8.3723853693        0.6140703576       -1.6258596531
 H          5.0820413609        2.4502229854        0.3552478134
 H          1.1676306456        3.3399532309        0.5515771688
 H         -1.0441405359        4.4887395551        0.6322035479
 H         -3.8614816189        0.7163864076        0.9100149273
 H         -5.8848287005       -0.1256587906        2.0089373390
 H         -7.7262721019        1.4279806888        2.5929727227
 H         -7.4954157827        3.8413346775        2.0427425189
 H         -5.5598013179        7.2439498187       -0.2064975763
 H         -3.9514788105        8.0698298138       -1.9113888296
 H         -2.1415804428        6.5755727233       -2.6954252997
 H         -1.8889659351        4.3355608444       -1.7330095942
 H         -1.8902564451       -4.3193821698        1.7613090020
 H         -2.1256007663       -6.5663506126        2.7132458582
 H         -3.9060226482       -8.0809157257        1.9014111708
 H         -5.5046263678       -7.2694231901        0.1805763827
 H         -7.4491414906       -3.8825960221       -2.0930497831
 H         -7.6964075312       -1.4719635471       -2.6469863112
 H         -5.8831953555        0.1017510691       -2.0304677183
 H         -3.8675037131       -0.7197027813       -0.8997932289
 H         -1.0296943094       -4.4772791256       -0.6057396605
 H          1.1785582824       -3.3215998872       -0.5190431264
 H          5.0776521709       -2.4319259094       -0.3405145985
 H          6.9820571125       -2.5173490390       -1.9403762510
 H          9.0492971655       -3.8479930022       -2.0444229740
 H         10.8005883816       -3.5477214024       -0.3317369280
 H         10.4602078049       -1.9259170978        1.4974079297
 H          8.3915264766       -0.6046290453        1.6074842873
 H          7.0103260394        2.5333570010        1.9368140678
 H          9.0908514982        3.8446977769        2.0253395635
