94
 energy: -157.742725031357 gnorm: 0.000046254759 xtb: 6.7.1 (edcfbbe)
C            9.83507694029477        3.06789139887411        0.46154956601787
C            8.88532313995944        3.36825055648527       -0.50086350938715
C            7.72919629897949        2.61536409309901       -0.59474365597625
C            7.50962894386557        1.54253952205409        0.26647211977056
C            6.26886182716416        0.75550363717092        0.17122524374897
C            5.05397351672064        1.42682452222395        0.12939282865751
C            3.83739093593021        0.74992204745504        0.08431666523791
N            2.66636231598289        1.39508508102181        0.05315278301253
C            1.52063903294377        0.72204532369976        0.01332321150654
C            0.27464658373498        1.40666439766871       -0.02838432357021
C            0.20984814489394        2.81256439944922       -0.01408591641011
C           -1.00417123038563        3.44109462064151       -0.02638709084244
C           -2.17018515002177        2.63993590110819       -0.04523725843334
N           -3.42656109754356        3.26366459795417        0.01317184065612
C           -4.36830793772298        2.93544285038014        0.99581554415698
C           -4.27882025937701        1.78668995453863        1.77476944165597
C           -5.20765278429683        1.53287820587470        2.76919260870653
C           -6.24792611822700        2.41589373501700        3.00236342746580
C           -6.35765885645074        3.56131069334102        2.23259786843694
C           -5.42629263368696        3.82588454052412        1.24103688627924
O           -5.58652698546370        4.99138910295466        0.53852698308444
C           -4.78399472358319        5.18442969394293       -0.55103698119989
C           -5.07129781875182        6.26272011929112       -1.37294514079642
C           -4.30877669074770        6.49520420482549       -2.50504472241862
C           -3.27660307989005        5.63026305680227       -2.82763235805414
C           -2.98440767723580        4.55308836361874       -2.00972937597548
C           -3.71015855062454        4.32988177812143       -0.84206640649637
N           -2.13408932352401        1.33021771171833       -0.08205011706556
C           -0.95530404258207        0.69765906874574       -0.07887434587457
C           -0.93887379787584       -0.73510744447845       -0.12536671472190
N           -2.09952802375458       -1.38461093983349       -0.25403036239692
C           -2.12387802291959       -2.69942415902899       -0.28941664348488
N           -3.34649312626440       -3.33056088630843       -0.42967778774777
C           -4.57004928533046       -2.78662045586269        0.01842892674913
C           -4.85599857163340       -1.42681177056689        0.02968529528277
C           -6.07195685781886       -0.97497574676444        0.51579325813851
C           -7.01761189743379       -1.86381851797790        0.99524420413836
C           -6.75717094543972       -3.22279650730491        0.96737780243827
C           -5.54624006621053       -3.68290673868012        0.47589404736310
O           -5.35358841329771       -5.04527900222126        0.45069766960305
C           -4.43019605029366       -5.48869936182017       -0.45719163042730
C           -4.52038725178201       -6.79826168500100       -0.90405236700452
C           -3.63250949808851       -7.26324406516847       -1.85845284244049
C           -2.68394944372401       -6.40804018426445       -2.39464957835875
C           -2.58800818328152       -5.10228301085226       -1.94722497659561
C           -3.42944658668391       -4.63859151782016       -0.94047217871328
C           -0.94064917483691       -3.47234815089009       -0.13993098235917
C            0.25558442195470       -2.82299279694405       -0.03929108609028
C            0.30132635790727       -1.41531758928461       -0.05446526808030
C            1.53449816785366       -0.70811837165895        0.01498834125902
N            2.69020725896687       -1.35773709336547        0.06793467103603
C            3.85071716001556       -0.69059807961638        0.09509624336562
C            5.07850559606699       -1.34528493830653        0.13454181678270
C            6.28210478917544       -0.65214497036711        0.16115869436124
C            7.53950262979617       -1.41717134138132        0.13008695077777
C            8.53853560648286       -1.11249347407718       -0.79220761252110
C            9.70745643929901       -1.84924316393267       -0.82949440640585
C            9.89839227927139       -2.90083294706038        0.05222938756337
C            8.90767594055843       -3.21761348521569        0.96689693106628
C            7.73484358356770       -2.48577078247950        1.00233408467226
C            8.46750277105354        1.25392708522542        1.23628974501365
C            9.61963097071312        2.01161292163834        1.33188718071093
H           10.73800423077686        3.65624210005622        0.53477165042040
H            9.04633534211351        4.19138962820343       -1.18234666257308
H            6.99449148376144        2.84302363526449       -1.35443439391617
H            5.03023605934148        2.50622769483500        0.15355880414989
H            1.13591928821378        3.36676009807481        0.02647026029223
H           -1.08489035456628        4.51606953607244        0.01086953391183
H           -3.48285499832451        1.08661339100198        1.58417495367353
H           -5.11321270407601        0.63380181618978        3.35747842101259
H           -6.97255246521587        2.21800781135800        3.77597176561281
H           -7.15305041384386        4.27287845382547        2.38730939932783
H           -5.89555904146365        6.90426757375784       -1.10534256209116
H           -4.53229439196372        7.33934249572802       -3.13765773269270
H           -2.69453542072022        5.78726834282352       -3.72223812322527
H           -2.18977346615000        3.87334027492025       -2.27503825152974
H           -4.11046017640823       -0.73318436580998       -0.31856444318004
H           -6.27231687651148        0.08451486404785        0.52153886409228
H           -7.95897740686895       -1.50658136077040        1.38209562617854
H           -7.47455595082180       -3.94583074878223        1.32228669309114
H           -5.28990367264742       -7.43114960939852       -0.49151928600973
H           -3.69756721349375       -8.28535758204355       -2.19648403834371
H           -2.01373942152526       -6.75416276658572       -3.16596785208574
H           -1.85464209422992       -4.43354134497904       -2.37157005420595
H           -0.99343068654662       -4.54725792167456       -0.07582095209132
H            1.18397926608949       -3.36361857589799        0.07268579761635
H            5.07581731185492       -2.42499704361921        0.10960975995280
H            8.38879847323407       -0.30087390176217       -1.48919901422811
H           10.47291737667501       -1.60221293706144       -1.55101935359424
H           10.81435467129553       -3.47276576420917        0.02496530094090
H            9.04943960685688       -4.03749699294466        1.65655427465168
H            6.96722883980400       -2.72644868924403        1.72460152872467
H            8.29856702460688        0.43839082013091        1.92425453826121
H           10.35249058295473        1.77724030284102        2.09048992192995
