106
 energy: -171.364506891133 gnorm: 0.000060076579 xtb: 6.7.1 (edcfbbe)
C           -8.09760553064245       -1.55886806849076        1.72325905817017
C           -8.22975179575222       -0.24016470064702        1.31478946557420
C           -7.10756128251004        0.50837255573252        1.01572695254487
C           -5.84007865279556       -0.06181300933346        1.11942383221347
C           -4.65103385207015        0.71684122928302        0.78201774492001
N           -4.76789028693191        2.03950918804040        0.65903048908638
C           -3.64528892683021        2.70454378766062        0.34999719774655
C           -3.73020929363348        4.15914818088956        0.23536943303656
C           -4.88994017345232        4.82737559295890        0.62902651640033
C           -4.96956438453369        6.20216401027860        0.51990285051694
C           -3.89889106107446        6.92372678747634        0.01406843838210
C           -2.74421780393566        6.26494478972373       -0.38195945030583
C           -2.65645673565098        4.89095673955200       -0.27239702470772
N           -2.47417964470435        2.13023726589592        0.12946796947168
C           -2.44617496820441        0.79532384600262        0.24316089337215
C           -1.20901647694108        0.11106892785409       -0.04671513250088
C           -0.00033000776141        0.77570208406293        0.08968721702546
C            1.22097059888730        0.12633729227462       -0.03589444489949
C            2.44269189075212        0.81772731668675        0.28160156790886
N            2.44145927180542        2.15947456168714        0.26091190617643
C            3.60043758618843        2.74546458235693        0.50391120033184
C            3.64655062047673        4.20618719324022        0.50655269571543
C            4.83835149587038        4.87053695928247        0.79894939579423
C            4.88015443947691        6.25120290776099        0.80419777730599
C            3.73772254628494        6.98386279100193        0.51966031172956
C            2.54951186114856        6.32971070961707        0.22884220443117
C            2.50078451928324        4.94967738695863        0.22117238801280
N            4.74628575929122        2.08702435653147        0.74214523750443
C            4.66065131405254        0.75662092027224        0.78220178449760
C            5.87138534137870       -0.01349048702255        1.05757493332724
C            5.77823268577641       -1.35845597711426        1.41076690696991
C            6.92269475021270       -2.09068004167334        1.65798500906901
C            8.16828399213339       -1.49044786332037        1.55351510374551
C            8.26717885616976       -0.15198056282441        1.20439310311208
C            7.12534839912957        0.58640740521038        0.95913924111433
N            3.53502516836630        0.09812012726770        0.58605224274203
C            1.22382143769561       -1.25235767020401       -0.41089059487567
N            2.42507196837193       -1.92010589687445       -0.67417489190334
C            3.37120699989738       -1.52401286923718       -1.59838705400185
C            3.35799740537876       -0.43394245765403       -2.45715477795724
C            4.45171096842650       -0.25389281628685       -3.28503278192681
C            5.52363998838409       -1.14242966675006       -3.27257313160690
C            5.52475992481612       -2.25023452140418       -2.44190742194328
C            4.44030505313588       -2.44965338979375       -1.60229805231872
C            4.10003168345408       -3.46604488868628       -0.64060355952772
C            4.72989819301021       -4.61973567034763       -0.20091969021496
C            4.11257386475588       -5.37934931962460        0.77879019992623
C            2.89021291007579       -4.99414345212283        1.32695798543219
C            2.24256047472576       -3.84934443990782        0.90315350129190
C            2.84709831857198       -3.09298805747196       -0.09380444630377
C            0.01975066483781       -1.91791426736390       -0.57793532706952
C           -1.19443748624257       -1.27061499446841       -0.40448222128330
N           -2.38769565164262       -1.96173102338373       -0.64369440837008
C           -3.35698147954960       -1.59237647502616       -1.55362262978060
C           -3.37053287277934       -0.52148529863737       -2.43642478359825
C           -4.48467906585660       -0.36554007038974       -3.24144864354409
C           -5.55084191920610       -1.25937374823614       -3.18361190901404
C           -5.52579842363824       -2.34847666583071       -2.32893710440278
C           -4.42085009436919       -2.52329565195083       -1.51091475179198
C           -4.05353766156167       -3.51375943893266       -0.53241490917933
C           -4.66816446050133       -4.65779951858119       -0.04800565591949
C           -4.02537755109966       -5.38858328213585        0.93718355623491
C           -2.79271831169633       -4.98418492273301        1.44694212547803
C           -2.16021890814870       -3.84820619153860        0.97853311754588
C           -2.79093359061486       -3.12121156741472       -0.02366471196687
N           -3.51331116173922        0.07023745514872        0.60712334745871
C           -5.71333690059811       -1.38704508630729        1.53221763273091
C           -6.83843250496639       -2.12928725405098        1.83274902696501
H           -8.97635242418689       -2.14132431034168        1.95734444926942
H           -9.21049117605124        0.20414647750020        1.22986513744059
H           -7.18956105243584        1.53494088586113        0.69247851004145
H           -5.71263143294810        4.25058206431503        1.02275144903946
H           -5.86906679684592        6.71406318214866        0.82859099240029
H           -3.96371687428224        7.99813349058726       -0.07225604246015
H           -1.91276086727711        6.82654514397600       -0.78129432132964
H           -1.76822349319530        4.36089028315102       -0.58007792601980
H           -0.00745175649603        1.81603295065450        0.37603168723193
H            5.71712682828332        4.28538216023903        1.02191914428155
H            5.80564436936332        6.75936059938848        1.03172585432368
H            3.77223839565651        8.06311586065353        0.52488843822983
H            1.65926560553514        6.89989734492574        0.00872321313054
H            1.58554367903077        4.42428361530621       -0.00362480070281
H            4.80125455827205       -1.80873706180002        1.49417499310652
H            6.84253410872723       -3.13132659800664        1.93391335339982
H            9.06223316700780       -2.06475988158940        1.74644251282729
H            9.23732790463050        0.31581201113117        1.12400985708032
H            7.18176920518749        1.62828189657151        0.68295302152947
H            2.52533999481623        0.25497544177746       -2.47389588351331
H            4.47147418737791        0.59294194196109       -3.95526874888879
H            6.36139884300339       -0.96503532394446       -3.92981544826320
H            6.35213147223959       -2.94264377394479       -2.44518541350901
H            5.68287353177176       -4.91377229824254       -0.61236522398103
H            4.58705266581232       -6.28193192739384        1.13300359367033
H            2.44163835764108       -5.60015909712255        2.09952096701507
H            1.30419401171326       -3.54200590628620        1.33788381324327
H            0.02649418104377       -2.95162467342474       -0.89460740901759
H           -2.54245213271427        0.17129653677624       -2.48817835113750
H           -4.52550902881568        0.46613556164152       -3.92950012259352
H           -6.40537481937515       -1.10079206169733       -3.82388912337762
H           -6.34924905918143       -3.04484863591326       -2.29654334609391
H           -5.62901000339256       -4.96620793098752       -0.42960800036910
H           -4.48772862250491       -6.28317901362496        1.32605245956060
H           -2.32414317476885       -5.56771117069572        2.22498367024799
H           -1.21387233324568       -3.52483308587615        1.38350793616857
H           -4.72613041301487       -1.81431097076738        1.61653611086869
H           -6.73269325813688       -3.15482900090239        2.15304228571439
