106
 energy: -171.364605655519 gnorm: 0.000054292232 xtb: 6.7.1 (edcfbbe)
C           -8.19584995886023       -1.46576911212938        1.43209857468538
C           -8.28903772019754       -0.18156363105779        0.91719888702452
C           -7.14423579966302        0.55594350200348        0.68335043678667
C           -5.89307313034577        0.00724292237757        0.95694360184010
C           -4.67850168449928        0.77112917259829        0.67929205110951
N           -4.77693150740314        2.09145767195479        0.52720233542427
C           -3.62963825886877        2.74245586907847        0.27836910947498
C           -3.68987036243173        4.19863150058080        0.17117367328156
C           -4.87380227533545        4.87436134934446        0.46924575973172
C           -4.92977302907045        6.25129434835632        0.37421412327427
C           -3.81028287666522        6.96818071764027       -0.02027382605606
C           -2.63107494980386        6.30215933402079       -0.32028085673570
C           -2.56705157630660        4.92591259573783       -0.22497116911605
N           -2.45855584311161        2.15202267072473        0.11195518082285
C           -2.44867097737980        0.81768281055674        0.24349851537727
C           -1.21511857417358        0.11331639450813        0.00069041759702
C           -0.00201426869477        0.78020011503703        0.09360815949638
C            1.21659000657890        0.12229334411049       -0.00088279364965
C            2.44447380223639        0.83475650243595        0.24186998594745
N            2.44136492950011        2.17118514719345        0.12877813675279
C            3.60766852340786        2.77061166581801        0.29386230520281
C            3.65264684050741        4.22883649534970        0.20987481283977
C            4.84040344180948        4.90970286971702        0.48008500379267
C            4.88199885882310        6.28846688088989        0.40712904789090
C            3.74377118725995        7.00247886719340        0.06443326937258
C            2.56027628278998        6.33156945946833       -0.20647368776418
C            2.51095313756002        4.95338732850678       -0.13412697592429
N            4.76385403575415        2.12697343189783        0.52235665431281
C            4.67906322110103        0.80390576098603        0.65782534052574
C            5.90314697154539        0.04779947662463        0.91474285894750
C            5.83194769194835       -1.24605110177109        1.42683695189075
C            6.98873016882188       -1.96785848408380        1.64717532658158
C            8.22309120856108       -1.41041275547510        1.35046908258510
C            8.29959385727694       -0.12309435971733        0.84066016961358
C            7.14626749975114        0.60719338239253        0.62680752127013
N            3.54516835434357        0.13644417807735        0.56362149091346
C            1.21466929920530       -1.27886951921368       -0.27787572359426
N            2.41171252923315       -1.97347856052686       -0.48986766232801
C            3.35077811959579       -1.67299631336406       -1.45591355884314
C            3.33664219605519       -0.66673839599902       -2.41132381387117
C            4.42119700232173       -0.57505150464067       -3.26520319494423
C            5.48504682927509       -1.46957988522973       -3.18313341811342
C            5.48771271625818       -2.49456661003438       -2.25228881026529
C            4.41298528631886       -2.60380906487670       -1.38402961533496
C            4.07652449935245       -3.52180614575297       -0.32668086064082
C            4.70271956403859       -4.63349655848055        0.21481269067521
C            4.08929155446932       -5.29276599901078        1.26700355960851
C            2.87320786933999       -4.85031431423588        1.78519956528052
C            2.22936826361659       -3.74564909731939        1.26090710677308
C            2.83158383524852       -3.08958572790121        0.19399273077736
C            0.00774035121445       -1.94942798119876       -0.40018328712509
C           -1.20407173737611       -1.28792404629645       -0.27456235781638
N           -2.39691908727287       -1.99071666196521       -0.48273279074151
C           -3.34372257993610       -1.69206099865711       -1.44157574396480
C           -3.33910032665750       -0.68499735819276       -2.39630838794588
C           -4.43025444035420       -0.59505683730744       -3.24187695167512
C           -5.49142879102535       -1.49208883178952       -3.15246614208789
C           -5.48444179736391       -2.51817193234215       -2.22283998653966
C           -4.40284553378520       -2.62584812966514       -1.36296206188628
C           -4.05598163209622       -3.54409917228382       -0.30925676304380
C           -4.67522851640553       -4.65819511593451        0.23529882965266
C           -4.05248258345904       -5.31708878261519        1.28220199858872
C           -2.83395600888264       -4.87186087897245        1.79212219622623
C           -2.19696937597217       -3.76469568841584        1.26464665104501
C           -2.80862793751467       -3.10888399356684        0.20301384185658
N           -3.53917968553728        0.11270864868456        0.58273423772517
C           -5.80513105468816       -1.28345047864019        1.47449747332438
C           -6.95336070880800       -2.01271880798876        1.71413546226999
H           -9.09250128907748       -2.03898056717350        1.61558065962053
H           -9.25694309986723        0.24448720527515        0.69799059150797
H           -7.19579592421371        1.55592739339069        0.28016653206962
H           -5.73454706878766        4.30121246878179        0.77773689139951
H           -5.84828521469765        6.76886355999314        0.60857794022315
H           -3.85605978178204        8.04445653937799       -0.09463922683434
H           -1.76084076307072        6.86076215253502       -0.63078739699546
H           -1.65926781428904        4.39055444778817       -0.45683850098888
H           -0.00571223017158        1.83676596867074        0.31221767773678
H            5.71575605600090        4.33883002526888        0.74910541461352
H            5.80382806322077        6.80981553486474        0.61899186154805
H            3.77820443230015        8.08026847633317        0.00788979738336
H            1.67471639086267        6.88795324487662       -0.47468052843528
H            1.59970090573134        4.41462869649970       -0.34316271041404
H            4.86355935507191       -1.66461067940266        1.65395994073879
H            6.92669962703764       -2.96816932407388        2.04851407785776
H            9.12644533830730       -1.97777393367122        1.51859102916518
H            9.26115821767435        0.31114914062808        0.60994835776749
H            7.18513479375243        1.60960100032897        0.22821547306558
H            2.51026584245790        0.02651548568180       -2.48054807425064
H            4.44021918345947        0.20606557433056       -4.01101271229660
H            6.31532890843403       -1.36302965595613       -3.86466901355148
H            6.30911458278167       -3.19224287223073       -2.20133900427233
H            5.64991009029487       -4.97246943936817       -0.17474474349603
H            4.56128109410255       -6.16129146834075        1.70091126839425
H            2.42652169729390       -5.37939628887721        2.61342972122405
H            1.29498254637060       -3.39375666299895        1.66989772601062
H            0.01140250193639       -3.00228728315924       -0.64617774451638
H           -2.51468096634984        0.00995776336568       -2.47152868862160
H           -4.45668999005185        0.18668306268127       -3.98682198842301
H           -6.32728518093717       -1.38670167857816       -3.82735357007729
H           -6.30381600969297       -3.21781327052733       -2.16634670678433
H           -5.62428956287362       -4.99919266712265       -0.14790666617298
H           -4.51897271376463       -6.18746465017388        1.71835755999623
H           -2.37981538184986       -5.40071631388085        2.61644805331660
H           -1.26057768751050       -3.41101110597183        1.66741093683644
H           -4.83056691425158       -1.69371204853599        1.69002115436355
H           -6.87840094863227       -3.01065724365505        2.11914812846762
