106
 energy: -171.437520631946 gnorm: 0.000037731798 xtb: 6.7.1 (edcfbbe)
C           -7.99165037440681       -1.47859307870305        2.20581688983807
C           -8.13330476010919       -0.16182527707599        1.79399236819453
C           -7.02732556754748        0.55930500214472        1.38738715878002
C           -5.76689653566442       -0.03695470242061        1.38755164709137
C           -4.59998224074423        0.70888254624877        0.92478295580739
N           -4.74043761754938        2.00358999418842        0.65451636927945
C           -3.65085666843782        2.63495151130982        0.22816512043864
C           -3.74084521079132        4.07212743325892       -0.02358363972693
C           -4.88940306501408        4.77733992993607        0.33450012296891
C           -4.97071141406975        6.13555303905207        0.09437681451524
C           -3.91195141199251        6.80026764330862       -0.50599455832147
C           -2.76804216961736        6.10384471037949       -0.86620512412936
C           -2.67930253476197        4.74598999344732       -0.62696942939451
N           -2.48484382837065        2.03180353599661       -0.00383819542974
C           -2.45361470389047        0.73049866458101        0.25556473761274
C           -1.20310651509668        0.01996813013836       -0.03634561760457
C            0.00355754104452        0.67514709698732        0.15514077168607
C            1.22047629024460        0.03421847498858       -0.02900249926475
C            2.45632361847563        0.75542820879143        0.29349150084274
N            2.44664281450279        2.07508109493987        0.14572714678239
C            3.59902234781841        2.69140897266302        0.40785568089560
C            3.63651763536385        4.14938317512730        0.30741863588660
C            4.81263867405698        4.84243656448457        0.59277447193176
C            4.84195991399091        6.22112194037676        0.50740295629860
C            3.70158682941948        6.91967124293958        0.14018540738882
C            2.52908930874636        6.23613895786974       -0.14496040402689
C            2.49352425258774        4.85741357209321       -0.06337710821316
N            4.71924061684543        2.05721898750413        0.74208712006275
C            4.61865590323947        0.74200625213609        0.91129384443085
C            5.81530712571951       -0.00716481726258        1.28489026047959
C            5.71329212392399       -1.34792046923591        1.65347482310761
C            6.84898016571967       -2.06312597567986        1.97978839717829
C            8.09269181970524       -1.45156706532233        1.93557636380904
C            8.19995970673429       -0.11820454859569        1.56941105793730
C            7.06752996382635        0.60454709744780        1.24720559614758
N            3.49080603673430        0.05664876672643        0.73867261680575
C            1.22942612094421       -1.29798142720266       -0.47788362936580
N            2.42375288188538       -1.95443623672693       -0.77288028877851
C            3.45338541384782       -1.44687675182337       -1.54463292009299
C            3.49037107596153       -0.29625814264679       -2.31846751954638
C            4.65205455331335       -0.02345288418545       -3.01635565567193
C            5.74761753047069       -0.88250614484791       -2.96562706495420
C            5.70072522710042       -2.05018089305024       -2.22986947032973
C            4.54513501625542       -2.34190595621254       -1.51769010270602
C            4.15085856721575       -3.44260538247034       -0.68111591599378
C            4.79102974832368       -4.60360045772524       -0.26779633627873
C            4.12118805664619       -5.46205904218097        0.58238151381821
C            2.83667612260784       -5.16647863145049        1.03212322511284
C            2.18128082689751       -4.01562907568985        0.63401096663132
C            2.83829814993243       -3.16364053036171       -0.23995691785674
C            0.02134104126155       -1.95327703473680       -0.69047454296358
C           -1.19460673482973       -1.31608845356345       -0.47147133060355
N           -2.38366004416566       -1.99318758918433       -0.74335021082781
C           -3.43202963395696       -1.50968076885666       -1.50478938418348
C           -3.48912153185057       -0.38090559116465       -2.30904613828729
C           -4.66734996395141       -0.12963619056953       -2.98710646306660
C           -5.75954102633106       -0.98871535567853       -2.88704642860715
C           -5.69333482519206       -2.13523056225935       -2.12005262052112
C           -4.52070959204411       -2.40567005457280       -1.42757222391505
C           -4.10430645424871       -3.48175809837796       -0.57001812025816
C           -4.73125217470097       -4.63226273463574       -0.10957828636609
C           -4.03897839265257       -5.46554137380936        0.74759166825006
C           -2.74462525755603       -5.15541877406376        1.15776102849392
C           -2.10203332231366       -4.01477870288599        0.71243200286719
C           -2.78274402210241       -3.18793901827862       -0.16737875243086
N           -3.45882252732486        0.03990095736901        0.77336251887448
C           -5.63014369035066       -1.36087412598779        1.80339217055137
C           -6.73971276644825       -2.07490326170202        2.21182124483058
H           -8.85806526069573       -2.04042985755746        2.52176582222237
H           -9.10851293970854        0.30182839231447        1.78929874623618
H           -7.11774773004601        1.58292655783498        1.05861838685939
H           -5.70138870649791        4.24264643516900        0.80222235064193
H           -5.86090812636172        6.67850547046767        0.37448760074930
H           -3.97813795393388        7.86152796772736       -0.69358567176936
H           -1.94645409760456        6.62133065428842       -1.33835080072934
H           -1.80048207304146        4.18481257850169       -0.90509239225447
H           -0.00244447092149        1.69938540590642        0.49484410940331
H            5.68792970852077        4.28157191320392        0.88095805758099
H            5.75437652159265        6.75399960173003        0.72936597192765
H            3.72621743817136        7.99721258808054        0.07613015110593
H            1.64140869861908        6.78061922496916       -0.42968840780182
H            1.59170327092424        4.30704488313367       -0.28277648103106
H            4.73867011579865       -1.80958383441050        1.67821058299111
H            6.76362398792772       -3.10036204271835        2.26635093763315
H            8.97950522231023       -2.01422725531024        2.18684241732594
H            9.16885692841071        0.35725772312068        1.53477552746801
H            7.13089460649405        1.64122562887631        0.95505709305231
H            2.64292709581169        0.37409185065241       -2.37032732112936
H            4.70794312271990        0.87507079070775       -3.61396283288351
H            6.63936046162938       -0.63058256830171       -3.51947674384786
H            6.54311202159993       -2.72398152048037       -2.20518584667470
H            5.79345309183480       -4.82151082183682       -0.60231167349743
H            4.59938455676264       -6.37175600834599        0.91290161816788
H            2.34163207766943       -5.84717754639467        1.70853065894303
H            1.19488529213726       -3.78373294701810        1.00434783773928
H            0.02761222122953       -2.96254070196020       -1.07519304757681
H           -2.64437212516398        0.28853171877960       -2.39977630298249
H           -4.73924985383200        0.75192321442081       -3.60784716966818
H           -6.66437105021780       -0.75361680354092       -3.42686469958560
H           -6.53366474590808       -2.80910347152076       -2.05688267828454
H           -5.74067838233650       -4.86152616092671       -0.41412360993021
H           -4.50680194047638       -6.36651129938535        1.11478494757866
H           -2.23140195304657       -5.81646855904866        1.84004052793584
H           -1.10736177805723       -3.77065288970623        1.05152182365952
H           -4.64983326565676       -1.81096590888190        1.79693227833249
H           -6.62788429210665       -3.09957033221604        2.53248537029388
