  78
       -140.10331764
 O         -3.4820058236        3.0150821895       -1.4713570010
 S         -2.8950449009        3.7022903143       -0.3489270023
 O         -2.9932473962        5.1373325750       -0.3029714387
 C         -3.5342324866        2.9905784079        1.1673986861
 C         -3.9863191826        1.6852846931        1.1497945775
 C         -4.4216015053        1.0966023587        2.3261101968
 C         -4.3949315287        1.8303260718        3.5029783348
 C         -3.9432089015        3.1418606947        3.5094689550
 C         -3.5027340702        3.7286010296        2.3341203026
 C         -1.1512138160        3.2468880867       -0.2661082335
 C         -0.1555433706        4.2050330175       -0.2333717597
 C          1.1702129942        3.8029264307       -0.1446142660
 C          1.4882017132        2.4582666958       -0.0691458823
 C          0.4755221341        1.4998008234       -0.0898162954
 C          0.7672407078        0.0700256918        0.0163900362
 N         -0.2718254971       -0.7574040589        0.0518590470
 C          0.0093597236       -2.0522590298        0.1347388663
 C         -1.1270893162       -2.9741956780        0.1588662282
 C         -0.9381687141       -4.3550393373        0.1149900103
 C         -2.0274512217       -5.2078851785        0.1012999503
 C         -3.3151909225       -4.6912318033        0.1224502928
 C         -3.4939271780       -3.3212524171        0.1758755453
 S         -5.1580322384       -2.6233613453        0.2062034622
 O         -5.3316944561       -1.9299391362        1.4590487320
 O         -6.0907853360       -3.6730173208       -0.1066221627
 C         -5.1442948248       -1.3995024754       -1.1108079245
 C         -4.4346783729       -1.6506012056       -2.2693645524
 C         -4.3976036901       -0.6818392936       -3.2593912797
 C         -5.0721952662        0.5167495863       -3.0837032577
 C         -5.7985194602        0.7482656830       -1.9273537278
 C         -5.8343594174       -0.2159926855       -0.9320407789
 C         -2.4215107954       -2.4579069950        0.2026378668
 N          1.2448836454       -2.5439321845        0.1799532363
 C          2.2230756187       -1.6436792590        0.1609089833
 C          3.6089982633       -2.1088206248        0.2205598248
 C          3.9295167103       -3.4609756460        0.1122468964
 C          5.2524610957       -3.8653208477        0.1391817757
 C          6.2662572813       -2.9269499770        0.2717350847
 C          5.9391429871       -1.5888100570        0.3908723109
 S          7.2363918375       -0.3478126210        0.5872161461
 O          8.4270470954       -0.8379979191       -0.0531434305
 O          7.3113497277        0.0065434494        1.9793337729
 C          6.5753366627        1.0460612324       -0.3346859631
 C          6.6509124295        1.0288082010       -1.7135289811
 C          6.0679551885        2.0590602882       -2.4329060201
 C          5.4122741117        3.0828177937       -1.7659038596
 C          5.3484920026        3.0917626940       -0.3810212268
 C          5.9340597526        2.0655338752        0.3424125324
 C          4.6281033504       -1.1707330199        0.3718054869
 N          2.0316596717       -0.3285296958        0.0784085757
 C         -0.8523380307        1.9051548154       -0.2003223372
 H         -4.0179864976        1.1577784310        0.2094253846
 H         -4.7789716582        0.0768899855        2.3184663992
 H         -4.7351806271        1.3771181304        4.4219528959
 H         -3.9341802660        3.7071553970        4.4292647226
 H         -3.1532936860        4.7486805999        2.3008761857
 H         -0.4352985338        5.2459167707       -0.2835192965
 H          1.9549652831        4.5439941980       -0.1296918322
 H          2.5143242163        2.1320252625        0.0053917982
 H          0.0699024973       -4.7380413022        0.0877601285
 H         -1.8767642484       -6.2761097930        0.0669355922
 H         -4.1878260439       -5.3252651199        0.0951573609
 H         -3.9154488248       -2.5900572336       -2.3884210206
 H         -3.8374766159       -0.8610681688       -4.1647371665
 H         -5.0263072302        1.2781499692       -3.8459544164
 H         -6.3167164237        1.6843142639       -1.7936580575
 H         -6.3773037235       -0.0638681415       -0.0121336047
 H         -2.5749121073       -1.3918835121        0.2539788641
 H          3.1301308041       -4.1766397685        0.0011091597
 H          5.4981656372       -4.9127736493        0.0522049020
 H          7.3070549455       -3.2105790448        0.2796812755
 H          7.1734570096        0.2196456928       -2.1991960409
 H          6.1224532794        2.0636812185       -3.5108675270
 H          4.9524703325        3.8808377912       -2.3296365049
 H          4.8455389364        3.8961993902        0.1344186401
 H          5.9124269726        2.0394480373        1.4210263901
 H          4.3747225318       -0.1276436029        0.4688498500
 H         -1.6352508556        1.1665148833       -0.2384552900
