  70
       -106.66752861
 C          9.8396911313       -0.1912523853       -0.6196685013
 C          9.1932170554       -0.5571245475       -1.8109399560
 C          7.8286009669       -0.5740144046       -1.8792761972
 C          7.0468629550       -0.2261287193       -0.7575581899
 C          5.6385863802       -0.2373675361       -0.7958570980
 C          4.8938226182        0.1026665432        0.3061664497
 C          3.4171079958        0.0869243509        0.2604161015
 C          2.7054275697        1.2915738445        0.3536072050
 C          3.3674261537        2.5435814140        0.4559660303
 C          2.6678621764        3.7043785880        0.5767592758
 C          1.2592413206        3.6850440351        0.6070737247
 C          0.5862295254        2.5089428709        0.4835830718
 C          1.2762078073        1.2776335602        0.3292700933
 C          0.5938815383        0.0625689715        0.1735145126
 C         -0.8821300549        0.0488330315        0.1189178545
 C         -1.5552245217        0.6173810292       -0.9589207801
 C         -2.9342585218        0.5909441930       -1.0236558837
 C         -3.6703725037        0.0051814013        0.0024878391
 N         -5.0701294444       -0.0224583260       -0.0591979430
 C         -5.8637011606       -1.1394057906        0.1094048736
 C         -5.4972070676       -2.4596236350        0.3286795825
 C         -6.5041552680       -3.3994440447        0.4350314635
 C         -7.8462877884       -3.0443608162        0.3188079534
 C         -8.2161205101       -1.7364940679        0.0776079750
 C         -7.2219852595       -0.7734592557       -0.0331126436
 C         -7.2388285674        0.6382769474       -0.2950476139
 C         -8.2567121579        1.5593331729       -0.5039255802
 C         -7.9199212980        2.8818839288       -0.7108742200
 C         -6.5888406502        3.2927583044       -0.6969719216
 C         -5.5586866612        2.3953645840       -0.4916184383
 C         -5.8896047456        1.0607068128       -0.3062238705
 C         -3.0045572954       -0.5547805057        1.0892644322
 C         -1.6247565094       -0.5379913969        1.1397955912
 C          1.3057046273       -1.1409143811        0.0648635236
 C          0.6475715887       -2.3842572162       -0.1275485591
 C          1.3460032443       -3.5495050295       -0.2018963168
 C          2.7499968741       -3.5449231382       -0.0839708657
 C          3.4214275458       -2.3718900540        0.0721822112
 C          2.7340174365       -1.1307696081        0.1286035781
 C          5.5520659994        0.4691806799        1.4999485565
 C          6.9150877072        0.4865774477        1.5675014992
 C          7.7009160341        0.1426336212        0.4471385588
 C          9.1102281135        0.1509569454        0.4843592703
 H         10.9193179049       -0.1830284387       -0.5843311094
 H          9.7857692899       -0.8253005430       -2.6735438042
 H          7.3258603922       -0.8552985216       -2.7938195653
 H          5.1427571422       -0.5139204076       -1.7162963958
 H          4.4470073979        2.5596195302        0.4340000351
 H          3.1862714870        4.6487598874        0.6549489561
 H          0.7196111534        4.6132735094        0.7255385915
 H         -0.4933668032        2.4956014564        0.5065505213
 H         -0.9865830427        1.0675188903       -1.7597558196
 H         -3.4485368162        1.0100609279       -1.8756128014
 H         -4.4594575903       -2.7481024622        0.4033045498
 H         -6.2446312836       -4.4334469462        0.6088258115
 H         -8.6037538980       -3.8084019390        0.4103427856
 H         -9.2552364109       -1.4634927867       -0.0284973938
 H         -9.2889685301        1.2432759079       -0.4986727779
 H         -8.6961482146        3.6139924359       -0.8771354520
 H         -6.3569918653        4.3370198092       -0.8464822375
 H         -4.5313966795        2.7265443087       -0.4660606522
 H         -3.5748201814       -0.9909065886        1.8958301005
 H         -1.1110335201       -0.9715704907        1.9856075307
 H         -0.4284480533       -2.3897189666       -0.2180524038
 H          0.8297856087       -4.4871251310       -0.3474732127
 H          3.2878981716       -4.4807750727       -0.1232689273
 H          4.4976833502       -2.3696765807        0.1594787464
 H          4.9543606621        0.7280866770        2.3623254143
 H          7.4136555307        0.7647532912        2.4853972474
 H          9.6030889461        0.4330726356        1.4041040160
