70
 energy: -106.604931316680 gnorm: 0.000026381216 xtb: 6.7.1 (edcfbbe)
C            9.86276568045804       -0.31682847948668       -0.42925596636282
C            9.24405556667501       -1.05537859861721       -1.44944783499201
C            7.88099333944615       -1.11087538440830       -1.53383178491781
C            7.07249485650887       -0.42759336668023       -0.59956186939398
C            5.66837535841328       -0.47007259370207       -0.65872344906697
C            4.88546643499787        0.21027536853469        0.25279120968149
C            3.42797392816111        0.16427292701065        0.18907471064943
C            2.68508631794525        1.38420522161912        0.11249713995533
C            3.32058416022023        2.62264316549254       -0.00433184428294
C            2.59898322985557        3.81445709261692        0.00998444562203
C            1.22915679679553        3.78327438499430        0.15034180561203
C            0.56600956986710        2.55908626000111        0.20672245893518
C            1.25964902290973        1.34919960050670        0.13042184911039
C            0.58137524421292        0.08960631576852        0.10137166819119
C           -0.87520207146964        0.05057242588066        0.06251723485557
C           -1.58906425125164        0.73597974427312       -0.92740850718251
C           -2.96521096131499        0.69239511510230       -0.97262532685762
C           -3.67829710092036       -0.02298900285757       -0.01142815378720
N           -5.07606365636519       -0.05887965769453       -0.04816468515553
C           -5.85813405874171       -1.19435309951170        0.03344873285775
C           -5.47772883820730       -2.52635349026475        0.11494689398207
C           -6.47572836015540       -3.48118746834177        0.15557000376576
C           -7.82250740955104       -3.12870555693153        0.10714639761105
C           -8.20680969768218       -1.80681948253173       -0.00018895030076
C           -7.22203198731704       -0.82923330307379       -0.04249258488048
C           -7.25509833579346        0.60106137934464       -0.17069752315535
C           -8.28470261467546        1.52720665163297       -0.26781202771819
C           -7.96304299744025        2.86706985870855       -0.35666203613627
C           -6.63533612359926        3.28782466921690       -0.33288573490576
C           -5.59362992167136        2.38508777952498       -0.23664948970429
C           -5.90948966886136        1.03533250039379       -0.17353858884319
C           -2.98034840133048       -0.70201594892884        0.98654057979345
C           -1.60329003549125       -0.67341668375540        1.01384826228619
C            1.32675503784704       -1.13234654029626        0.10819589923878
C            0.70134147815966       -2.37512493769573       -0.01308874752456
C            1.42120877499119       -3.56488792443972        0.07541259700210
C            2.78106494683201       -3.52741279907080        0.29071929593946
C            3.43861701506165       -2.30082029967931        0.35383521354236
C            2.74895497668422       -1.09457828814908        0.21061729940520
C            5.52625907900860        0.96054619345031        1.26987533566226
C            6.88514922965035        1.00564023675704        1.35982681028283
C            7.70076654360801        0.32211763837704        0.43026309446278
C            9.10647081827800        0.35712484749065        0.49102178079866
H           10.94127233566744       -0.28454966853717       -0.37750179589269
H            9.85618082016284       -1.58015752399261       -2.16858003957729
H            7.39964844196645       -1.67982574073793       -2.31675845242770
H            5.19823072165071       -1.02371603439186       -1.45976339128662
H            4.39382756342364        2.66148417634823       -0.11112599983740
H            3.12228185013433        4.75518847756841       -0.07414490620911
H            0.66056781406424        4.69979278825733        0.20302349687202
H           -0.50736836814107        2.55093598674126        0.31854758708954
H           -1.04516111989065        1.27097543776355       -1.69214706468457
H           -3.49951167514223        1.19313370405323       -1.76633040546714
H           -4.43686731653054       -2.81204453894239        0.13343217694375
H           -6.20503255770545       -4.52465794937783        0.22224433099984
H           -8.57265312869631       -3.90456317883271        0.14420124138579
H           -9.24998365308944       -1.53441280514620       -0.05541217948188
H           -9.31409591690771        1.20191442300685       -0.26853094874767
H           -8.74865317500305        3.60369477342186       -0.43569396152177
H           -6.41496178212627        4.34379758835976       -0.38681592687642
H           -4.56920921351661        2.72350790409768       -0.19937716770902
H           -3.52869444638350       -1.23157036522567        1.75143789495456
H           -1.07303429941385       -1.18123836826001        1.80622157855188
H           -0.36296158525499       -2.42013194586220       -0.18632256296973
H            0.90380683748052       -4.50851563247599       -0.01342195133701
H            3.34672372698143       -4.44096137263583        0.39747552691743
H            4.50450973858822       -2.28649854674085        0.52209252243454
H            4.91243539430603        1.47057311864619        1.99850400112771
H            7.36137298740917        1.56517848561271        2.15287466376757
H            9.57854555280473        0.92799299475799        1.27833010577284
