70
 energy: -106.667583667757 gnorm: 0.000193510786 xtb: 6.7.1 (edcfbbe)
C            9.83890371861347       -0.18759912752610       -0.61543667958351
C            9.19258902891983       -0.54510031920087       -1.80943851898322
C            7.82801180036500       -0.56125997560270       -1.87814373591059
C            7.04621955110380       -0.22066540560584       -0.75421541083468
C            5.63804287238222       -0.23173584104006       -0.79285122172015
C            4.89312225671717        0.10181519294255        0.31103283022593
C            3.41642168435354        0.08467708411653        0.26386573596232
C            2.70327850490199        1.28856523863271        0.35480269210112
C            3.36372655020966        2.54145804693108        0.45548658950039
C            2.66247426174069        3.70193981779960        0.56968011961137
C            1.25384615791992        3.68107514393031        0.59686111899722
C            0.58240864564387        2.50363963942936        0.47735252398072
C            1.27418890146529        1.27278685166675        0.32803639483328
C            0.59380825477307        0.05651847936442        0.17278622171010
C           -0.88220790826153        0.04232721782203        0.11766986959043
C           -1.55430864921872        0.60796048167647       -0.96235222276903
C           -2.93341894793686        0.58554446685098       -1.02583847554550
C           -3.67008928672065        0.00635656899716        0.00358036552731
N           -5.06998338388774       -0.01866312492874       -0.05681412676638
C           -5.86360721515920       -1.13543068259665        0.11284591190363
C           -5.49609704201777       -2.45540618076013        0.33149096721595
C           -6.50257846521790       -3.39572145629571        0.43854697181776
C           -7.84496405200692       -3.04076438794560        0.32442996440653
C           -8.21563942678615       -1.73293257286230        0.08410404953990
C           -7.22197951173737       -0.76942542685492       -0.02835118926837
C           -7.23865749745973        0.64209774154631       -0.29180484534898
C           -8.25627332451240        1.56327010282372       -0.50201441601674
C           -7.91901983943205        2.88517196846087       -0.71265608099780
C           -6.58765102987229        3.29551151969079       -0.70119002006681
C           -5.55772998301574        2.39816559828322       -0.49437212378264
C           -5.88921047672234        1.06415476023742       -0.30500414758496
C           -3.00523084155261       -0.55141395456493        1.09205445569095
C           -1.62531025403443       -0.53848934058058        1.14151841143155
C            1.30713512218250       -1.14582725677280        0.06394057533933
C            0.65076787322008       -2.38961013561128       -0.13226577529843
C            1.35114556666264       -3.55339452433808       -0.21103408176915
C            2.75513064518400       -3.54709620980629       -0.09163717272319
C            3.42467208961195       -2.37377817085496        0.07045907488816
C            2.73534158456220       -1.13377776383768        0.12959930930123
C            5.55083909959660        0.46175517397673        1.50701460158700
C            6.91393112035717        0.47794998744402        1.57516903596974
C            7.69999675576657        0.14020533278861        0.45307632921522
C            9.10935578551108        0.14742312063479        0.49073186015702
H           10.91855222276083       -0.18015226681174       -0.57984560216199
H            9.78527159045230       -0.80739105767543       -2.67376399894179
H            7.32514288361664       -0.83625448395180       -2.79458479937212
H            5.14215325865803       -0.50304746827840       -1.71481429872035
H            4.44336037392094        2.55840748680047        0.43642611720666
H            3.17952496691169        4.64730023715203        0.64485766444203
H            0.71271293622194        4.60914283937295        0.70963724644814
H           -0.49720470269394        2.48923116585929        0.49845290483254
H           -0.98462848874820        1.05303615964742       -1.76527742060383
H           -3.44747191650892        1.00240448734779       -1.87905389120604
H           -4.45795070049431       -2.74291614687652        0.40471536561093
H           -6.24255226298502       -4.42979303534912        0.61116422189153
H           -8.60216480074764       -3.80510835017935        0.41676231458567
H           -9.25512390711138       -1.46068056570466       -0.02043782878714
H           -9.28874549131926        1.24776299478204       -0.49525427831505
H           -8.69506311507501        3.61717582817033       -0.88032230524675
H           -6.35556784122745        4.33923490378083       -0.85445309175173
H           -4.53008950919659        2.72860603360337       -0.47095422064722
H           -3.57639813448764       -0.98197777371678        1.90101405645691
H           -1.11205587075640       -0.96940129448968        1.98900032402582
H           -0.42525083412970       -2.39597460854085       -0.22327933013015
H            0.83681610126997       -4.49129915878383       -0.36147326496076
H            3.29447050849661       -4.48196014640678       -0.13471962317780
H            4.50081826591411       -2.37021593112297        0.15938003973672
H            4.95292012807535        0.71622008006346        2.37059080637031
H            7.41236283132988        0.75033879765008        2.49490446675672
H            9.60215558224554        0.42298155031100        1.41253377342418
