70
 energy: -106.667477424651 gnorm: 0.000043363330 xtb: 6.7.1 (edcfbbe)
C            9.78363153312486       -0.10103844691495       -0.51425688035948
C            9.16443543615239       -0.38568971875021       -1.74168816255644
C            7.80164745225308       -0.40925469829839       -1.83901136755323
C            6.99434690481639       -0.14862895903759       -0.71176972038420
C            5.58709866095240       -0.16374987989886       -0.78081126985443
C            4.81808585261081        0.09120539760892        0.32713265083527
C            3.34200658220896        0.07386959658105        0.25305359174748
C            2.66332837624642        1.08116473593202       -0.44747143427371
C            3.35466303859026        2.14568919392664       -1.08375259633687
C            2.68446661738665        3.12473888239715       -1.74986524160880
C            1.27670779825629        3.10878116089954       -1.80960152628364
C            0.57525624570667        2.11467827488718       -1.20057967836161
C            1.23474747727253        1.06603841018086       -0.50662645737977
C            0.52100488212966        0.04600073464826        0.13770371727144
C           -0.95601427494473        0.03199956760786        0.08162829011334
C           -1.61756802186329       -0.26661914899523       -1.10581046190499
C           -2.99746473239417       -0.28245943511945       -1.15995110332838
C           -3.74420467957386       -0.00483255887985       -0.01841090285960
N           -5.14471037527696       -0.02730256718329       -0.06743225714367
C           -5.91848863641266       -1.05413609463143       -0.57046608861698
C           -5.53042208666576       -2.28137396971947       -1.08881999894203
C           -6.52240753616599       -3.14919383873023       -1.50319825392502
C           -7.87113799895346       -2.81559478387710       -1.40005510194134
C           -8.26399904272141       -1.60589795190322       -0.86358786676467
C           -7.28529958265283       -0.71646840198569       -0.44000616499608
C           -7.32807896106981        0.58349789864356        0.16845866876693
C           -8.36308258607710        1.43626424629164        0.52887926978796
C           -8.04885069688058        2.65840216883968        1.08846760189876
C           -6.72226351062254        3.04030985646157        1.27644636728516
C           -5.67536857975279        2.20959041988133        0.92607159761772
C           -5.98534227748768        0.97002984964494        0.38494461830883
C           -3.08887087645139        0.29354782749668        1.17295911017030
C           -1.70881899409631        0.31404119575924        1.21776897762759
C            1.19945848651997       -0.96210130020421        0.83692513905939
C            0.50742416403856       -2.02541642310750        1.47439282501621
C            1.17755196517614       -3.00662972389292        2.13739084264775
C            2.58551121834253       -2.99412178549500        2.19205034124860
C            3.28724928100668       -2.00003510166963        1.58308301896900
C            2.62766373824310       -0.94832149838326        0.89399426732128
C            5.44878520082984        0.37582717917338        1.55749291518883
C            6.80993553905792        0.40128408174935        1.65372107920681
C            7.62086662624324        0.13979011151353        0.52899996200979
C            9.02904457825191        0.15602959295114        0.59593942109656
H           10.86225557482278       -0.08724028327869       -0.45608256174189
H            9.77658840979807       -0.58627744347277       -2.60896121320619
H            7.32001079019336       -0.62763330203307       -2.78173113248145
H            5.11214676730987       -0.38806205384359       -1.72612532250371
H            4.43259271997661        2.16901563492098       -1.02355282935192
H            3.22549958026275        3.92733713410700       -2.22929574264302
H            0.76009000542499        3.89903484355329       -2.33441580860088
H           -0.50430957712228        2.11335262876971       -1.23114059690359
H           -1.04040841185580       -0.48613896672161       -1.99240771247890
H           -3.50456256126851       -0.49714416406539       -2.08881175732052
H           -4.48862659587922       -2.55671099899696       -1.15706715790926
H           -6.24580461444971       -4.10953476209318       -1.91305712492049
H           -8.61619598855742       -3.52070276591456       -1.73754827267953
H           -9.30943800056903       -1.35354337057413       -0.76885119405533
H           -9.39065456883993        1.14638996188069        0.36865792667070
H           -8.83874110337246        3.33544998839352        1.37806811443573
H           -6.50703437742248        4.00925838473776        1.70254082449969
H           -4.65055967444195        2.52209239282108        1.05996148114246
H           -3.66668141725248        0.49381705889316        2.06292430793214
H           -1.20263402600016        0.54743446673872        2.14332689100904
H           -0.57085345374976       -2.04647084417295        1.41742330336722
H            0.63625888736792       -3.80833646451085        2.61810207073482
H            3.10204369071671       -3.78693153623932        2.71296542269704
H            4.36689193096895       -2.00209851397787        1.60906265372932
H            4.83134224130642        0.58023473335265        2.42061857085226
H            7.28757958795449        0.62339900260347        2.59767301451310
H            9.50067797931306        0.37609214272558        1.54338910740888
