106
 energy: -174.594592621473 gnorm: 0.000141899313 xtb: 6.7.1 (edcfbbe)
O            2.35048747680492        3.68046789342556       -0.40646343437760
C            1.21979685395292        3.24516744846271       -0.17684883333882
C            0.74905250774168        1.89032169543341       -0.07950641361652
C           -0.67294249581208        1.91870428219799        0.08030689860151
C           -1.40238684119419        0.72720970116508        0.15457013873372
N           -2.79397508723385        0.75297288329407        0.29635568126734
C           -3.52048585975313        0.14969074369853        1.30102051683179
C           -3.07237166593901       -0.49469200004068        2.44524396265826
C           -4.02250192658362       -1.01646518904110        3.30471668202364
C           -5.38285531026433       -0.88342568549433        3.04463885033715
C           -5.83481704834295       -0.19923455253302        1.92709436889910
C           -4.90086378177507        0.32867768979940        1.05094223464045
C           -4.99703100784842        1.10137468971481       -0.16158680751266
C           -6.06136681513606        1.57245700843967       -0.91266352728499
C           -5.79087068360000        2.28333367981300       -2.07063570299315
C           -4.48161520590403        2.51423622022875       -2.48427409861955
C           -3.40446419649053        2.04794188359941       -1.75378100397028
C           -3.67066504422587        1.35411975364402       -0.58112205232531
C           -0.72056623467566       -0.48831044026758        0.07889294885553
N           -1.42085315346904       -1.70272823982251        0.16511978766240
C           -1.22847086389380       -2.68641341712613        1.11686048137390
C           -0.35819894375092       -2.70999665215005        2.19720663087729
C           -0.37404239143753       -3.82389208332972        3.01592291272249
C           -1.24718577508937       -4.88213972396753        2.78064561533470
C           -2.14446755984364       -4.84582708502083        1.72773605484218
C           -2.14255910361944       -3.73996549402800        0.89114973665224
C           -2.93230647819890       -3.35837182346695       -0.24889521181635
C           -3.96994186992358       -3.96490843678281       -0.93981697697734
C           -4.50724868540951       -3.31274136863379       -2.03569804758384
C           -4.00497359822359       -2.08449642033498       -2.45816571967713
C           -2.96798463050696       -1.46401478551862       -1.78808368510174
C           -2.45196161173129       -2.09501124526324       -0.66376756627887
C            0.69975202918952       -0.51671553763561       -0.08031740248013
N            1.35061915104084       -1.75824110409745       -0.16754162768961
C            1.12029956797140       -2.73203992485104       -1.12104918458648
C            0.24979933970697       -2.71996205766410       -2.20138322743510
C            0.22345973812022       -3.83161843437502       -3.02287047621348
C            1.05590773762197       -4.92274847406224       -2.79030051345285
C            1.95342279324433       -4.92336377746978       -1.73698784872681
C            1.99322163218246       -3.82039333235414       -0.89754036948858
C            2.79699832353299       -3.47176331435502        0.24324366410002
C            3.81113389506059       -4.11871666273679        0.93235567033937
C            4.37394356583813       -3.48930887384415        2.02875617476315
C            3.91946834329607       -2.24337239001719        2.45354722277830
C            2.90628776375331       -1.58269688722740        1.78546903600739
C            2.36586054628854       -2.19155093944338        0.66043831818040
C            1.43003779781370        0.67051211105335       -0.15482012338827
N            2.82164629958770        0.64020833692999       -0.29581705198146
C            3.52403662363673        0.00662986049916       -1.29905292029603
C            3.05140522181731       -0.61915301332506       -2.44374916161819
C            3.98036596678105       -1.18193605190279       -3.30052932418377
C            5.34455819593073       -1.10646235563418       -3.03768530624727
C            5.82283978469436       -0.44004273522561       -1.92036748527231
C            4.91025853441692        0.12767810422808       -1.04661087884995
C            5.03669145487298        0.89651925421557        0.16557887803852
C            6.11869726315737        1.32364423790162        0.91769128365104
C            5.87633888752520        2.04632003986464        2.07456992984392
C            4.57720583690525        2.33121785323879        2.48644569108751
C            3.48255560745470        1.90897441678355        1.75516738454931
C            3.72134270858772        1.20437014188748        0.58303656578757
C           -1.08921518798886        3.29107317312734        0.17943147866699
O           -2.20162498320325        3.77076135589468        0.40993002703631
N            0.08088491446690        4.04964382961836        0.00167345162928
C            0.10860449964448        5.45610206669979        0.00235253375668
C           -0.91779920877136        6.17533843864176       -0.60325602240831
C           -0.88929961759688        7.55739899130232       -0.59275893236728
C            0.16226148101995        8.23256671462319        0.00438705125040
C            1.18719685550207        7.51640716999179        0.60009839851900
C            1.16218090584530        6.13423649720021        0.60869177358962
H           -2.02018497534401       -0.57282348693906        2.66949920836936
H           -3.69818674252128       -1.53111159309007        4.19633568679006
H           -6.09604407946047       -1.30557123101036        3.73611852599114
H           -6.89066519206279       -0.07278525448871        1.74513233577100
H           -7.07785259662074        1.38666285755432       -0.60236799332315
H           -6.60616221145366        2.66447218129344       -2.66683488363908
H           -4.30199694385633        3.06719012719539       -3.39428527067253
H           -2.39015567390188        2.22724865831637       -2.07989505442825
H            0.30343047818266       -1.88351648818664        2.40529804724128
H            0.30199797998965       -3.86711776489664        3.85648543546726
H           -1.23006630354570       -5.73665341063216        3.44005071953210
H           -2.83659896942746       -5.65664005864364        1.56166197527118
H           -4.34608885930583       -4.92715034878084       -0.62904038502599
H           -5.32015800978758       -3.76557772315755       -2.58273268479955
H           -4.42909028091321       -1.60543206868131       -3.32771372659078
H           -2.57272686170782       -0.52217340724584       -2.13778058643702
H           -0.37974112279482       -1.86833445621104       -2.40758893902589
H           -0.45357960022157       -3.84710476542508       -3.86356689404233
H            1.00684031750655       -5.77403851250756       -3.45224078658335
H            2.61435654154784       -5.76015802140757       -1.57276789177517
H            4.15000755529691       -5.09407928230507        0.61960644004056
H            5.16982093089975       -3.97344070678724        2.57405649726941
H            4.36242758336216       -1.78224457700363        3.32340648087879
H            2.54784686091611       -0.62685536185838        2.13689341589616
H            1.99735602289111       -0.65233714265122       -2.67040180241652
H            3.63641451951142       -1.68358651152524       -4.19219403760751
H            6.04056621883448       -1.55960514441608       -3.72705865400195
H            6.88271874365512       -0.35777578100305       -1.73656530396478
H            7.12698444039102        1.09527604878091        0.60907251964153
H            6.70580707043815        2.39381116109021        2.67176742596437
H            4.41946034990011        2.89193162138679        3.39575630553361
H            2.47619008518295        2.13026613727605        2.08006237971615
H           -1.73709515808020        5.64756672644615       -1.06618595738132
H           -1.69187166777517        8.10785312674958       -1.06123716151328
H            0.18277962816240        9.31207555423508        0.00544626822508
H            2.01018646048143        8.03476619483847        1.06983759611607
H            1.96082169813843        5.57459494860801        1.07030408461235
