106
 energy: -174.594592523895 gnorm: 0.000164119358 xtb: 6.7.1 (edcfbbe)
O            2.30043168555819        3.71230083134928       -0.41320048278852
C            1.17587507852847        3.26221246799449       -0.18197716368234
C            0.72357683606993        1.90119638681619       -0.08292437323821
C           -0.69850031331088        1.91049291370524        0.07819833844693
C           -1.41155392367709        0.70925704712877        0.15400075743442
N           -2.80329284037488        0.71595558951679        0.29682310293579
C           -3.52055078378566        0.10391158761337        1.30284869552065
C           -3.06263867553918       -0.53317531377405        2.44728477550971
C           -4.00479397354318       -1.06725495897066        3.30799600021216
C           -5.36707249231791       -0.95342478779309        3.04885028498495
C           -5.82934785705948       -0.27633561011819        1.93118911254800
C           -4.90347726971259        0.26358908010507        1.05377369108901
C           -5.01134286795359        1.03328928714621       -0.15967798109949
C           -6.08269735291278        1.48815451983811       -0.91078287039637
C           -5.82295844258651        2.20068030710942       -2.07017563995511
C           -4.51734354123581        2.44929699586723       -2.48508924183460
C           -3.43326743179371        1.99939895550841       -1.75458468250767
C           -3.68891783777180        1.30379435650423       -0.58062793557935
C           -0.71337018556678       -0.49703180254764        0.07878175684569
N           -1.39812793744026       -1.72039808503549        0.16405506763722
C           -1.19584983667951       -2.70215665072579        1.11563856488908
C           -0.32609496051214       -2.71689659494894        2.19655735805490
C           -0.33038903584424       -3.83132176071725        3.01465983174575
C           -1.19184063628798       -4.89887433991757        2.77829332602377
C           -2.08857291749521       -4.87188361456397        1.72465113254812
C           -2.09804377934134       -3.76568676923441        0.88855788141339
C           -2.89058657178755       -3.39262920342828       -0.25236219087126
C           -3.92092851124027       -4.01006136504165       -0.94460771026501
C           -4.46359835753449       -3.36363518003092       -2.04123676059641
C           -3.97361662365415       -2.13029338262972       -2.46330993846781
C           -2.94422875871217       -1.49882751758101       -1.79177701078209
C           -2.42349612757382       -2.12413873048666       -0.66650450242532
C            0.70706009608340       -0.50633275814842       -0.08059489584134
N            1.37572078693206       -1.73864360201731       -0.16428766499673
C            1.16094777242633       -2.71855004690812       -1.11501934872922
C            0.29119174437849       -2.72301103956191       -2.19603349020487
C            0.28158169546685       -3.83791742915547       -3.01345885779356
C            1.12964967479860       -4.91599705599853       -2.77640236540608
C            2.02634599347619       -4.89973369917115       -1.72251396267246
C            2.04946774093056       -3.79332885573297       -0.88697646537474
C            2.84644114468012       -3.42956966542120        0.25386596932905
C            3.86866413321330       -4.05954172503223        0.94680668740559
C            4.41957036702366       -3.41905488930024        2.04283853535857
C            3.94554076753331       -2.17906815047451        2.46363363039813
C            2.92432480336225       -1.53512898595307        1.79147398319286
C            2.39567507509708       -2.15477593791197        0.66675714652262
C            1.42095422706913        0.69068329957992       -0.15714691844849
N            2.81273085982912        0.67897134533303       -0.29914296164797
C            3.52276177967170        0.05510370069220       -1.30303711303968
C            3.05764827375187       -0.57772270423047       -2.44696029749243
C            3.99349967040791       -1.12666218365910       -3.30522009121263
C            5.35683828745733       -1.03132261598667       -3.04432266239051
C            5.82694370669044       -0.35846309820683       -1.92735754958760
C            4.90744281646452        0.19594870156197       -1.05232979140753
C            5.02437945215115        0.96635226561899        0.15983098344217
C            6.10096481630631        1.40766532536927        0.91150036978124
C            5.84960505867254        2.12613301903716        2.06909314030342
C            4.54702638631294        2.39370165258461        2.48173625962909
C            3.45775564315143        1.95730322189189        1.75078799812970
C            3.70527487913900        1.25601993124734        0.57845821042373
C           -1.13313880366488        3.27727767148047        0.17641176077599
O           -2.25183458543698        3.74199583387563        0.40716873494108
N            0.02642164469688        4.05134241840257       -0.00314260493654
C            0.03538690810622        5.45809782650246       -0.00303634865221
C           -1.00105019827165        6.16339708043052       -0.60785406885760
C           -0.99093582114869        7.54573343840215       -0.59768699657289
C            0.05193141388852        8.23496631639406       -0.00133568657686
C            1.08675879736117        7.53267899416203        0.59368395280663
C            1.08018153669688        6.15030544231362        0.60258419202724
H           -2.00928815254796       -0.59649773443192        2.67074701539294
H           -3.67272837756274       -1.57682389229371        4.19967945908090
H           -6.07377605924890       -1.38498763378320        3.74116807510267
H           -6.88699023480868       -0.16441172296141        1.75012890361676
H           -7.09627356391133        1.28869824528262       -0.59946913101903
H           -6.64390266477184        2.56906842987660       -2.66662139427421
H           -4.34612291186208        3.00298084660638       -3.39626109333886
H           -2.42178589580383        2.19248924280006       -2.08159772348775
H            0.32653610390002       -1.88352887238642        2.40553624125127
H            0.34563480265864       -3.86770712859694        3.85555700183849
H           -1.16588036228077       -5.75346941044300        3.43728900723535
H           -2.77182024932815       -5.68997849514827        1.55758610709016
H           -4.28733545063515       -4.97621270353366       -0.63433492427856
H           -5.27113919347946       -3.82489139570108       -2.58918144282146
H           -4.40144269732389       -1.65596743642417       -3.33363243478670
H           -2.55805939318112       -0.55304174955824       -2.14101027839451
H           -0.35075710071400       -1.88154743448089       -2.40564599308710
H           -0.39467345241932       -3.86630657607649       -3.85446551086065
H            1.09311680579684       -5.77054542564261       -3.43496395167436
H            2.69926300427134       -5.72620150287760       -1.55475236952257
H            4.22265621598115       -5.03062343501812        0.63749272443495
H            5.22118918449678       -3.89004833720816        2.59121581633997
H            4.37947966315075       -1.70936335062488        3.33344364136068
H            2.55051906654276       -0.58400434134907        2.13967354701063
H            2.00384704242478       -0.62657556948483       -2.67194666855683
H            3.65565562107326       -1.63323929618096       -4.19644418158766
H            6.05843258285019       -1.47407856130945       -3.73478810196247
H            6.88579048710431       -0.26092758078895       -1.74499160131315
H            7.11206797629205        1.19331998654150        0.60203860581792
H            6.67475045311257        2.48417299104952        2.66604390055635
H            4.38231628499084        2.95159766401636        3.39154345379594
H            2.44865076835164        2.16497081274740        2.07621111552927
H           -1.81383972516796        5.62464344933312       -1.06962220577818
H           -1.80087902174778        8.08539186063806       -1.06611460909039
H            0.05866848057432        9.31465255822652       -0.00126277437451
H            1.90329358406780        8.06210804412034        1.06234915767916
H            1.88627138248346        5.60138235560596        1.06415580811490
