106
 energy: -174.655122563048 gnorm: 0.000036332281 xtb: 6.7.1 (edcfbbe)
O            2.23257276903933        3.83223762546389       -0.50475802217313
C            1.14029961925986        3.39871705558897       -0.22441895729484
C            0.69455101230560        1.99808359175161       -0.09292621119707
C           -0.69256098257064        1.99879846559462        0.09194295054600
C           -1.42079980699009        0.81970060893715        0.16332365525643
N           -2.80120326770123        0.82669559508252        0.31035560012721
C           -3.53116098564058        0.13840659244086        1.26759643186504
C           -3.08665619830990       -0.54201771848607        2.38915679437521
C           -4.03639477229310       -1.13125375185802        3.20368427644026
C           -5.39563712846832       -1.02630484468547        2.92394649645339
C           -5.84434081659137       -0.30130649048799        1.83635161526568
C           -4.90813577214897        0.29608835388366        1.00375837785714
C           -5.01106798688139        1.13296859481067       -0.16189307353641
C           -6.08499660085075        1.61436690673825       -0.89790818550546
C           -5.82979179964519        2.39544834893330       -2.00846636590884
C           -4.52450244929254        2.68273432891501       -2.39733309595215
C           -3.44009111019769        2.20962809470372       -1.68126892671354
C           -3.69275409723673        1.45063448076996       -0.55038693275949
C           -0.69913447321412       -0.39925437687018        0.07406674668707
N           -1.39031990678299       -1.60794898903733        0.14700350341486
C           -1.16933620937951       -2.62563778281806        1.06377102124594
C           -0.27763260904098       -2.67977941999922        2.12262871538741
C           -0.27958867042511       -3.81484065057482        2.91246729296640
C           -1.16361882164263       -4.86234257242181        2.67220901778609
C           -2.08693973253007       -4.79118746689322        1.64676358173756
C           -2.09744838715589       -3.66358796788664        0.83770117352583
C           -2.91887562030821       -3.25027100953126       -0.26766661257550
C           -3.97316663910923       -3.84470511615096       -0.94685283739449
C           -4.53520632287946       -3.17308945242522       -2.01547967786765
C           -4.03858165213019       -1.93998076274117       -2.42708481011479
C           -2.98569581151454       -1.33266488816438       -1.76800717788849
C           -2.45317926179591       -1.97960093733629       -0.66426737295433
C            0.69875565693028       -0.39997517922035       -0.07404444657022
N            1.38875633217934       -1.60938222278115       -0.14639741128817
C            1.16680667812764       -2.62732865058184       -1.06264948841417
C            0.27503686248726       -2.68119086649765       -2.12146507657365
C            0.27593500756367       -3.81665312981914       -2.91073087185634
C            1.15901101306066       -4.86484285684453       -2.66996759292313
C            2.08239406860471       -4.79403030518351       -1.64455560097287
C            2.09393960416226       -3.66604065144925       -0.83605224296756
C            2.91574154593583       -3.25295365005255        0.26912097636614
C            3.96945934185613       -3.84804558207530        0.94862111956679
C            4.53211734005378       -3.17642589767724        2.01691994733727
C            4.03664031029786       -1.94265254862861        2.42791545745439
C            2.98433209453234       -1.33467863379891        1.76852301358108
C            2.45124214940223       -1.98164830721649        0.66508122026363
C            1.42162347036517        0.81823499313800       -0.16383714509298
N            2.80203216332633        0.82379273709144       -0.31090412612823
C            3.53124452876465        0.13435243782174       -1.26788631054546
C            3.08598677391145       -0.54609901975820       -2.38913171820259
C            4.03508125239225       -1.13667010983173       -3.20344339382004
C            5.39444126879714       -1.03301335987671       -2.92380024899774
C            5.84394201593436       -0.30799985639554       -1.83654528624032
C            4.90839175636382        0.29073866114355       -1.00418207459904
C            5.01223384476917        1.12801137496567        0.16110580663949
C            6.08669639128163        1.60863843394503        0.89684648177493
C            5.83235387756484        2.39044907192519        2.00708905813868
C            4.52737914257543        2.67920912246644        2.39591925071024
C            3.44244483419265        2.20690608188201        1.68011523308033
C            3.69426337479185        1.44718256231976        0.54953464740725
C           -1.13694058349854        3.39990653613646        0.22294592964648
O           -2.22879351023493        3.83459207118978        0.50310928276362
N            0.00205488307957        4.17483771386849       -0.00089239688503
C            0.00271777994173        5.59406054591003       -0.00105080492247
C           -1.02478989897305        6.28479857427812       -0.63104954054183
C           -1.02200930713380        7.66824117011609       -0.62175364865949
C            0.00386896847659        8.36128272121065       -0.00109525035383
C            1.02918491631737        7.66741194588306        0.61956347342761
C            1.03081121521930        6.28396913152355        0.62889998709882
H           -2.03739045531632       -0.60421746131879        2.63366390168917
H           -3.71233073991123       -1.67881385597244        4.07597338342767
H           -6.10746907505399       -1.50344492959884        3.58046666452486
H           -6.89956121748612       -0.19140035821449        1.63939077770877
H           -7.09663108585346        1.37716815159074       -0.60689815357510
H           -6.65062987343462        2.78505160285248       -2.59158434120056
H           -4.35250339431279        3.28429866155275       -3.27782720463881
H           -2.43015508367859        2.42694532665727       -2.00135980480493
H            0.39254320411181       -1.86332596689931        2.34308113466644
H            0.41760196087968       -3.88179804396225        3.73425120530956
H           -1.13462965908702       -5.73385279807412        3.30873265566070
H           -2.79256009773063       -5.59000693198925        1.47886991555848
H           -4.33888102446167       -4.81428357314574       -0.64629647052918
H           -5.36061749193000       -3.61486841638882       -2.55293695252782
H           -4.47797862062743       -1.44514108745648       -3.28025583194566
H           -2.59416954117361       -0.38853400371279       -2.11682179547219
H           -0.39440196126226       -1.86424303017822       -2.34231697489947
H           -0.42133194353319       -3.88338728367262       -3.73246802046347
H            1.12922335316667       -5.73663696699209       -3.30606517385001
H            2.78728703018135       -5.59340852987198       -1.47626702051482
H            4.33425978302168       -4.81812198634941        0.64856041669763
H            5.35710898830665       -3.61871085549591        2.55460595782111
H            4.47648671416793       -1.44780870802462        3.28085216697896
H            2.59365771037499       -0.39002546322987        2.11687701713322
H            2.03664449259663       -0.60731664872115       -2.63356059001341
H            3.71041678279129       -1.68426685817036       -4.07548577299632
H            6.10574892089470       -1.51118887331133       -3.58013475387785
H            6.89928247000998       -0.19912409526893       -1.63966050648684
H            7.09807179131933        1.37030829580070        0.60585864120749
H            6.65361947900531        2.77948648256234        2.58998195142396
H            4.35604410987509        3.28131912040342        3.27617010495030
H            2.43275128543299        2.42538772455588        2.00017748421801
H           -1.82281598131840        5.74207640722732       -1.11343342924056
H           -1.82375935684087        8.20324055682449       -1.10767348094060
H            0.00430475305790        9.44057109073768       -0.00110895102389
H            1.83139159764734        8.20176154221665        1.10544652381017
H            1.82837750488685        5.74059325865154        1.11130912641068
