  106
       -174.59417329
 O          2.2296941030        3.7370976621       -0.6109358770
 C          1.1540717604        3.3143381193       -0.2688606763
 C          0.7028946963        1.9129894073       -0.1089340988
 C         -0.6783579019        1.9226224085        0.1114201111
 C         -1.4127654196        0.7486130113        0.1915229513
 N         -2.7920646183        0.7592628922        0.3519592875
 C         -3.5117406435        0.0197099092        1.2742059497
 C         -3.0617208345       -0.6649276579        2.3910584157
 C         -3.9998677896       -1.3268227425        3.1604775600
 C         -5.3551346566       -1.2836292497        2.8463494712
 C         -5.8126848428       -0.5508019154        1.7680131305
 C         -4.8876156751        0.1140913439        0.9763386859
 C         -4.9994518534        0.9632858288       -0.1781373175
 C         -6.0742458052        1.3965142249       -0.9411523497
 C         -5.8269401074        2.1990699408       -2.0377571581
 C         -4.5270012556        2.5566894160       -2.3841791213
 C         -3.4410627894        2.1341695084       -1.6403477204
 C         -3.6875037328        1.3500508091       -0.5253035719
 C         -0.7014708005       -0.4743493815        0.0823654117
 N         -1.4016539473       -1.6800908838        0.1495514520
 C         -1.2008062030       -2.6995107157        1.0653803027
 C         -0.2909708743       -2.7843967157        2.1067189132
 C         -0.3145822747       -3.9208693218        2.8929239793
 C         -1.2370152410       -4.9388632137        2.6699469476
 C         -2.1779401252       -4.8349786869        1.6640015994
 C         -2.1664537275       -3.7070279046        0.8563729372
 C         -2.9918006465       -3.2685120106       -0.2346666828
 C         -4.0841023421       -3.8206042614       -0.8878394710
 C         -4.6427434388       -3.1283737681       -1.9447461871
 C         -4.1013444804       -1.9206828699       -2.3752911914
 C         -3.0079300741       -1.3575253881       -1.7454388734
 C         -2.4849042308       -2.0183723280       -0.6454151143
 C          0.6924365646       -0.4839180265       -0.0802586225
 N          1.3766672357       -1.6988516041       -0.1464619328
 C          1.1659236749       -2.7151714634       -1.0633883854
 C          0.2565542931       -2.7892995310       -2.1059557931
 C          0.2716705269       -3.9234755562       -2.8956343461
 C          1.1848700341       -4.9501100746       -2.6742994596
 C          2.1235486804       -4.8585471977       -1.6650643179
 C          2.1204846645       -3.7331543905       -0.8539168746
 C          2.9471722516       -3.3058980623        0.2405467106
 C          4.0289016693       -3.8728941089        0.8986803618
 C          4.5910017268       -3.1892161575        1.9593230452
 C          4.0646551673       -1.9738883643        2.3871213540
 C          2.9823163408       -1.3955555720        1.7519739135
 C          2.4543409591       -2.0499584373        0.6504370586
 C          1.4207723509        0.7288830794       -0.1895498865
 N          2.7997839219        0.7199549651       -0.3516632337
 C          3.5072229648       -0.0287607785       -1.2760340559
 C          3.0452355571       -0.7070880246       -2.3918114003
 C          3.9724988174       -1.3810008382       -3.1639938269
 C          5.3290656155       -1.3554571465       -2.8537037965
 C          5.7992022683       -0.6282309330       -1.7769592207
 C          4.8851048667        0.0486612206       -0.9827233443
 C          5.0113364501        0.8982547962        0.1699779957
 C          6.0944405847        1.3220022471        0.9265152082
 C          5.8612055932        2.1312813579        2.0212602120
 C          4.5668913206        2.5038436005        2.3728420619
 C          3.4728213751        2.0906158343        1.6357215807
 C          3.7054015665        1.3009613401        0.5216249830
 C         -1.1098620090        3.3303878998        0.2710067521
 O         -2.1795523887        3.7682838123        0.6125887286
 N          0.0276812300        4.0953766706        0.0015064723
 C          0.0387817429        5.5103285947        0.0028479230
 C         -1.0205215644        6.2102812640       -0.5606837660
 C         -1.0058979972        7.5930091086       -0.5514655962
 C          0.0617117529        8.2777042218        0.0040759864
 C          1.1178286645        7.5749595610        0.5590178311
 C          1.1094363684        6.1921758978        0.5671699964
 H         -2.0183825421       -0.6798651500        2.6638746683
 H         -3.6728931306       -1.8848618430        4.0251729728
 H         -6.0577827190       -1.8163831661        3.4691292729
 H         -6.8671741862       -0.4908051947        1.5464881745
 H         -7.0809308490        1.1054503226       -0.6831394146
 H         -6.6491544928        2.5505753537       -2.6427360443
 H         -4.3631484855        3.1748426574       -3.2547414622
 H         -2.4371002818        2.4067661867       -1.9304664723
 H          0.4110049207       -1.9938512637        2.3180769443
 H          0.3956853581       -4.0159392793        3.7008577275
 H         -1.2230036508       -5.8123116568        3.3041423350
 H         -2.9122792779       -5.6107085279        1.5097017420
 H         -4.4844566102       -4.7729917036       -0.5759031758
 H         -5.5002515990       -3.5349836514       -2.4590342102
 H         -4.5408086287       -1.4125103575       -3.2206046887
 H         -2.5843068491       -0.4349726336       -2.1112418795
 H         -0.4381553288       -1.9920681345       -2.3160401272
 H         -0.4377736216       -4.0097470222       -3.7052806209
 H          1.1654984251       -5.8207043724       -3.3123035932
 H          2.8499646103       -5.6416229694       -1.5110736186
 H          4.4176904623       -4.8305481854        0.5884280996
 H          5.4396057721       -3.6082378075        2.4785017470
 H          4.5068039750       -1.4722212795        3.2349428674
 H          2.5695982954       -0.4672064225        2.1158591344
 H          2.0011633498       -0.7077844507       -2.6621444446
 H          3.6357681530       -1.9344557167       -4.0278782463
 H          6.0229991522       -1.8972892395       -3.4784304534
 H          6.8550528371       -0.5814820717       -1.5588044168
 H          7.0966364176        1.0192016428        0.6645660639
 H          6.6901644268        2.4766637727        2.6205268591
 H          4.4139899281        3.1271525453        3.2417152007
 H          2.4733569602        2.3755554704        1.9295339719
 H         -1.8515510525        5.6752125630       -0.9908866538
 H         -1.8315494820        8.1361455403       -0.9857052886
 H          0.0708461731        9.3570494491        0.0041757576
 H          1.9523519593        8.1039330306        0.9938321925
 H          1.9312904423        5.6432028773        0.9974195889
