137
 energy: -184.177732928020 gnorm: 0.000044568400 xtb: 6.7.1 (edcfbbe)
C           12.50799696676015       -4.89280901594895        2.01715777592469
C           12.88329698876571       -4.06786510266362        0.77799144244206
C           14.28448670289897       -3.49112671497809        0.99868694170844
C           12.93400870714385       -4.97832936690600       -0.45716798826194
C           11.83401099955971       -2.98737793079120        0.55886100600491
C           10.50464073270780       -3.37158608666919        0.33613742503253
C            9.48761052655127       -2.46473354891383        0.11922703328441
C            9.80787306797322       -1.11588628598142        0.11523464732176
C           11.13290657617279       -0.70101284407460        0.36454234074967
C           12.13683114768698       -1.63624183768235        0.57992369063315
C           11.12032205080930        0.73545118103040        0.34459901802031
C           12.11336161197887        1.69332200106121        0.50356210491796
C           11.79461605833989        3.03731275933261        0.40454742606068
C           12.82866291467328        4.14137967463682        0.57240517734557
C           12.90962588642096        4.95829824298146       -0.72494346525207
C           14.22661954377487        3.59641769069343        0.87793721773140
C           12.40961011939612        5.05216488849434        1.73511305259974
C           10.46720937313009        3.39128177713520        0.12690690190998
C            9.46080509590224        2.46149141783699       -0.03549907491651
C            9.78685363297354        1.12008321694296        0.09198393905619
N            9.00022404063096       -0.00701754013836       -0.04626054441436
C            7.62711707672649       -0.02133150065123       -0.31421446739712
C            6.75533938574510        0.76529565835453        0.43434660378403
C            5.40271032371627        0.75389784678254        0.16195744878793
C            4.88256676281388       -0.04089434895223       -0.85804647045813
C            3.44248041584370       -0.04558287671447       -1.14670975952071
C            2.98883192528988       -0.04592367352089       -2.46597572391468
C            1.63836724075173       -0.04167249627516       -2.76295029339461
C            0.72578891656588       -0.04406633271109       -1.72051897079855
C            1.17069468649447       -0.04885036041292       -0.38983504084749
C            2.51509706228095       -0.04570767692963       -0.10115965085236
C           -0.00137568046286       -0.05855944855616        0.56630176748689
C           -0.00099278434589        1.18832152564578        1.45569785686360
C           -0.00296436632897       -1.32828550934865        1.42313894286476
C           -1.17214340174579       -0.04678800237175       -0.39141096342364
C           -2.51687090623162       -0.04190741339527       -0.10443672100216
C           -3.44318409138801       -0.03802142221322       -1.15104016214584
C           -4.88349997407261       -0.03200772647605       -0.86397727627835
C           -5.40273746414743        0.75274553931120        0.16432672998781
C           -6.75530263534125        0.76331023670561        0.43687849621419
C           -7.62857063100407       -0.01305957686607       -0.32065105383424
N           -9.00134008730515       -0.00089487856127       -0.05142629341301
C           -9.80954331519107       -1.11143689893299        0.09595422348055
C           -9.49082254142797       -2.46054359370416        0.07788073415667
C          -10.50797544871984       -3.36957698939925        0.28485063386524
C          -11.83595874080132       -2.98750944027491        0.51906061349418
C          -12.88523874812852       -4.07019463573128        0.72689899074225
C          -12.94289406027580       -4.96208833681532       -0.52141757100130
C          -12.50450539998164       -4.91379297079473        1.95178244970506
C          -14.28470095881347       -3.49545575384511        0.96313163563910
C          -12.13720334244017       -1.63654309778521        0.56208717528552
C          -11.13313212107769       -0.69919036450357        0.35695436429236
C          -11.11907246329139        0.73739191234845        0.35988973516864
C          -12.11034246126862        1.69351314531255        0.53910860379088
C          -11.79044210367633        3.03861998356915        0.46133049325917
C          -12.82210389640670        4.14092267748514        0.65362354111843
C          -14.21910092100079        3.59263073361352        0.95757688618983
C          -12.90915594025684        4.98009105113370       -0.62901690649821
C          -12.39529856414588        5.03092500842201        1.82956176139776
C          -10.46397955305786        3.39569964232774        0.18321653090190
C           -9.45939168515565        2.46766626969137        0.00074106349127
C           -9.78622723003752        1.12466954256257        0.10800761989721
C           -7.11967973721637       -0.80052603649435       -1.35033920668656
C           -5.76531911185308       -0.80886231917282       -1.61350334422709
C           -2.98758759533733       -0.03648233221608       -2.46971023034786
C           -1.63676235374913       -0.03567031174001       -2.76498803049730
C           -0.72544707783339       -0.04206482683654       -1.72147652912223
C            5.76272442154497       -0.82824881117468       -1.59837559773728
C            7.11696463845614       -0.82019145630267       -1.33443323677534
H           13.25858140484398       -5.65935536231199        2.19933387184179
H           11.54608184895602       -5.38208185751531        1.89217043590808
H           12.45124700230411       -4.24949642405413        2.89289777677129
H           14.60806548193187       -2.91015087700707        0.13811277135843
H           14.99330135492911       -4.30472084531272        1.14062195899430
H           14.31370540821886       -2.86262405122663        1.88575529750896
H           13.17967375753824       -4.39565314554604       -1.34270199471087
H           13.69413889982992       -5.74603668261975       -0.32690605373303
H           11.98044722153013       -5.47021714318340       -0.62752802463191
H           10.25031514107457       -4.42070081213307        0.33533031911339
H            8.47287905292765       -2.80244739920777       -0.03024781862101
H           13.13783334275558       -1.28369584835991        0.76480489664987
H           13.12044782921657        1.36346936300695        0.69707750332079
H           13.18255497618479        4.31345965081776       -1.55781623407365
H           13.66206829903403        5.73876417393357       -0.63093342598892
H           11.95871248743706        5.42942420141682       -0.95753742560082
H           14.92123325063273        4.42579519027622        0.99684315187333
H           14.22890174139844        3.02149938781204        1.80113590336146
H           14.58838430092090        2.97004203250073        0.06582644044675
H           11.44811922137299        5.52113193591121        1.54572450280637
H           13.14812386445663        5.83782376525572        1.88163652271747
H           12.33195499711804        4.47518110089111        2.65440305665227
H           10.20737319416115        4.43443384365361        0.02881873892785
H            8.45433799818148        2.77630451968681       -0.26773815203496
H            7.14485337782794        1.37433532467330        1.23650746285059
H            4.73920168442539        1.38184219203084        0.73846193402368
H            3.71089599182332       -0.02546036571712       -3.26936532412697
H            1.30417934550987       -0.03365543272646       -3.78989372260980
H            2.86270324892786       -0.06593292800764        0.92169036984524
H            0.88169284806405        1.19902536528706        2.09089026605032
H            0.00051434814020        2.08725915397815        0.84257232266401
H           -0.88490413472158        1.20083002180028        2.08914965952704
H           -0.00372692416978       -2.21078340333189        0.78673859159555
H           -0.88693330593044       -1.35597640567554        2.05604551056073
H            0.88056767293883       -1.35786400482348        2.05656734810178
H           -2.86536925742959       -0.06356632952895        0.91805879550453
H           -4.73854983060805        1.37335514966298        0.74791112589545
H           -7.14356249994395        1.36345606723072        1.24630399535764
H           -8.47710259183026       -2.79717497830660       -0.08047948350294
H          -10.25482196243575       -4.41881176683133        0.26678792794429
H          -11.99083241799928       -5.45271523454156       -0.70342280704578
H          -13.70352827899725       -5.73060048089694       -0.39909954456501
H          -13.19173454874307       -4.36597458004266       -1.39706315325461
H          -12.44009339980151       -4.28313907537752        2.83615938739602
H          -13.25620573503445       -5.68062979077428        2.12797299305734
H          -11.54492347316542       -5.40409759939158        1.81358201806914
H          -14.61185833237283       -2.90128979541165        0.11298192195465
H          -14.99370709954572       -4.31035666020635        1.09633821775767
H          -14.30882799337123       -2.88031505071740        1.85966646080127
H          -13.13698962889521       -1.28574078908447        0.75661707067644
H          -13.11694037924187        1.36159315039484        0.73164218253812
H          -14.91191530095207        4.42077426085618        1.09426069839292
H          -14.58619850445857        2.98051164608305        0.13703262095875
H          -14.21708897721553        3.00221968055672        1.87094419749837
H          -11.95828562756427        5.45203510123241       -0.86011451828177
H          -13.65835828835448        5.76124127222361       -0.51660464006066
H          -13.18987600500614        4.35037558094460       -1.47082289709511
H          -13.13262657983914        5.81397469673895        1.99482887586954
H          -11.43492510113708        5.50303963361312        1.64233840828128
H          -12.31186817941991        4.43765857485670        2.73792087811405
H          -10.20341877605101        4.44006237758660        0.10125590167912
H           -8.45374855470315        2.78532115735967       -0.23115989594968
H           -7.79488200222577       -1.39304584805632       -1.94953550703903
H           -5.38154360829552       -1.43589868042411       -2.40482215331447
H           -3.70828388900179       -0.01207408334455       -3.27418933688471
H           -1.30133226915402       -0.02699286142014       -3.79152296259192
H            5.37758577230164       -1.46286187581732       -2.38298908770726
H            7.79117369825063       -1.42148065462171       -1.92598615125548
