  137
       -184.09157628
 C         11.4854168451       -4.9626777441        3.0555814608
 C         11.8540025008       -4.5872511783        1.6132240086
 C         13.3695771324       -4.3789804930        1.5496011487
 C         11.4923777857       -5.7409751755        0.6667504236
 C         11.0753983425       -3.3466489474        1.2021853616
 C          9.6746553869       -3.3922150963        1.2145652112
 C          8.8855574762       -2.3236497734        0.8411769987
 C          9.5164951041       -1.1604457845        0.4251481000
 C         10.9256567616       -1.0760350345        0.4414181695
 C         11.6950867319       -2.1658458751        0.8227899625
 C         11.2573493654        0.2603300018        0.0280210472
 C         12.4637148707        0.9205754236       -0.1552075676
 C         12.4686897228        2.2348870977       -0.5966855346
 C         13.7517585399        3.0249364097       -0.8064854259
 C         13.8580480106        3.4296036483       -2.2837061064
 C         15.0037397483        2.2223503956       -0.4416509288
 C         13.7197049419        4.2809581598        0.0760929132
 C         11.2408132987        2.8519518598       -0.8725855576
 C         10.0269450417        2.2192917179       -0.6985384566
 C         10.0324250926        0.9175973242       -0.2190672917
 N          8.9849099083        0.0502289012        0.0238658120
 C          7.6287680305        0.3451879145       -0.0987402786
 C          7.1069208097        1.5392015279        0.4142774770
 C          5.7702177140        1.8215922187        0.3034822470
 C          4.8689931348        0.9240235441       -0.3118114502
 C          3.4653440765        1.2036546708       -0.3933880798
 C          2.9773706345        2.5394110030       -0.3859747104
 C          1.6471287815        2.8316719118       -0.4469659639
 C          0.7070161722        1.7777465135       -0.4899331502
 C          1.1833189626        0.4282209443       -0.4984270329
 C          2.5113961097        0.1500747590       -0.4682330997
 C          0.0136672021       -0.5323285293       -0.5247672128
 C          0.0107026740       -1.4359674744        0.7125558924
 C          0.0227432343       -1.3776321994       -1.8027653578
 C         -1.1626278349        0.4202750837       -0.5094433722
 C         -2.4886047855        0.1333055557       -0.4857741128
 C         -3.4535321529        1.1808488801       -0.4783357914
 C         -4.8564490020        0.8971997337       -0.4138276531
 C         -5.8286978329        1.8131586409       -0.8774668552
 C         -7.1706097928        1.5483964717       -0.7895866365
 C         -7.6262607621        0.3501211594       -0.2259256538
 N         -8.9901442694        0.0884318124       -0.1122709557
 C         -9.9444223315        0.9611153230        0.3743671043
 C         -9.8097425045        2.2441447027        0.8839998978
 C        -10.9435995651        2.8818009209        1.3443836989
 C        -12.2130226449        2.2878717522        1.3259324260
 C        -13.4010211166        3.0761776009        1.8566303091
 C        -14.7182876618        2.3036941665        1.7431070732
 C        -13.1651233986        3.4016702606        3.3385625165
 C        -13.5435487558        4.3774562873        1.0544837576
 C        -12.3308795508        0.9940354795        0.8416904683
 C        -11.2068014813        0.3289188993        0.3737672774
 C        -10.9976363369       -0.9961720621       -0.1430653084
 C        -11.8516895618       -2.0625085042       -0.3842313888
 C        -11.3489755145       -3.2399091744       -0.9166167787
 C        -12.2216142770       -4.4570036184       -1.1844365880
 C        -11.6996165219       -5.6367452842       -0.3516910116
 C        -12.1619171155       -4.8076385577       -2.6778793399
 C        -13.6881169118       -4.2240888446       -0.8106913926
 C         -9.9825372956       -3.3059388053       -1.2219256146
 C         -9.1113248104       -2.2603146662       -0.9943301111
 C         -9.6184068097       -1.1008976516       -0.4260309367
 C         -6.6816334024       -0.5771322323        0.2313902945
 C         -5.3407129890       -0.3122545857        0.1357622653
 C         -2.9733199304        2.5200204510       -0.5102729944
 C         -1.6437626745        2.8204150423       -0.5123707523
 C         -0.6953173697        1.7730414169       -0.5067789301
 C          5.4189588001       -0.2706942271       -0.8283249951
 C          6.7573370718       -0.5499245837       -0.7315720078
 H         12.0532233159       -5.8351550199        3.3720945537
 H         10.4281419555       -5.1940015035        3.1488199524
 H         11.7143489933       -4.1387499396        3.7283606010
 H         13.8737242803       -5.2973672517        1.8439450559
 H         13.6852946380       -3.5907567562        2.2291866882
 H         13.6884161562       -4.1301702179        0.5400235034
 H         11.7418368459       -5.4770007165       -0.3588696630
 H         12.0475987841       -6.6365615574        0.9377011945
 H         10.4318839890       -5.9723663235        0.7097797770
 H          9.1778443082       -4.2961464169        1.5322685718
 H          7.8096745339       -2.3943364899        0.8884736117
 H         12.7677061863       -2.0668273836        0.8191779386
 H         13.3785993023        0.3894013040        0.0477347524
 H         13.8591027691        2.5443408223       -2.9163298104
 H         14.7813445950        3.9787985972       -2.4562911099
 H         13.0260264371        4.0605434440       -2.5835332270
 H         15.8871410548        2.8385346010       -0.5969256870
 H         14.9842466887        1.9209911524        0.6031647892
 H         15.0987769685        1.3379814711       -1.0673579932
 H         14.6393389260        4.8491336428       -0.0476247634
 H         13.6248106857        4.0016287008        1.1234412756
 H         12.8849613049        4.9268921359       -0.1808035145
 H         11.2299714781        3.8657770872       -1.2425342045
 H          9.1054704698        2.7244585387       -0.9446617494
 H          7.7635065505        2.2191881559        0.9369310715
 H          5.3922039419        2.7284796018        0.7495593307
 H          3.6917278378        3.3492563286       -0.3728848947
 H          1.3063497314        3.8565302463       -0.4617766316
 H          2.8531704828       -0.8740731768       -0.4480628160
 H         -0.0052756483       -0.8317617173        1.6172053513
 H         -0.8656456157       -2.0801723745        0.7096117507
 H          0.9012180390       -2.0601829725        0.7285024947
 H         -0.8619696340       -2.0089995038       -1.8451136981
 H          0.9057668660       -2.0121812348       -1.8298384988
 H          0.0310994863       -0.7329309593       -2.6792240465
 H         -2.8226960996       -0.8931814867       -0.5098356728
 H         -5.5109605546        2.7260866101       -1.3568814976
 H         -7.8897137964        2.2491618824       -1.1880865405
 H         -8.8473325429        2.7295624512        0.9386784574
 H        -10.8325392697        3.8798268834        1.7399225552
 H        -14.6881244189        1.3888172424        2.3302957338
 H        -15.5323165671        2.9181239873        2.1227692456
 H        -14.9386605658        2.0568055175        0.7070540239
 H        -14.0115281244        3.9545792179        3.7407591632
 H        -13.0486579974        2.4832776298        3.9102972701
 H        -12.2703427495        4.0023595393        3.4752826987
 H        -13.6863948983        4.1544140583       -0.0009190380
 H        -14.4038749416        4.9422558468        1.4076610664
 H        -12.6625213978        5.0051012469        1.1536784542
 H        -13.2780495905        0.4812453943        0.8249307740
 H        -12.8975141144       -1.9484987540       -0.1527952588
 H        -12.3192129066       -6.5157529761       -0.5167257227
 H        -10.6762171027       -5.8873480689       -0.6164183997
 H        -11.7265222677       -5.3891354623        0.7075467659
 H        -12.7971256973       -5.6661275380       -2.8860025369
 H        -11.1503306816       -5.0509467099       -2.9899681919
 H        -12.5100652876       -3.9675148003       -3.2751727697
 H        -14.2625627531       -5.1244988105       -1.0190540376
 H        -14.1160850679       -3.4114898271       -1.3930561682
 H        -13.7913495101       -3.9985685518        0.2481513104
 H         -9.5811778208       -4.2081133432       -1.6576831708
 H         -8.0696959104       -2.3452249433       -1.2641493402
 H         -7.0231993696       -1.4881286061        0.7007724650
 H         -4.6420243253       -1.0263898856        0.5429914134
 H         -3.6903125308        3.3268996581       -0.4831849350
 H         -1.3095543909        3.8475870352       -0.5094782348
 H          4.7807311826       -0.9612371188       -1.3578351349
 H          7.1578607165       -1.4497215287       -1.1751333870
