137
 energy: -184.176820483780 gnorm: 0.000043431222 xtb: 6.7.1 (edcfbbe)
C           13.36368148318411       -3.95653361273401        1.99090535798766
C           12.77428477862130       -4.14211874211729        0.58540705419241
C           13.87789697956519       -3.96767955834579       -0.46771254632851
C           12.24231846084217       -5.57400230602699        0.47995140339594
C           11.69772815343115       -3.09042853698786        0.35493866795514
C           10.36552992787996       -3.42458109835678        0.09698309782359
C            9.38590671429965       -2.47267329645524       -0.11964942188378
C            9.74967972900813       -1.13728364268463       -0.08637012979162
C           11.08339076546782       -0.77182576416787        0.19898804567421
C           12.04425664052782       -1.74682156177113        0.41249302837814
C           11.11770357629585        0.66523518009941        0.21215290475172
C           12.13055621676710        1.58914656608569        0.41187619712853
C           11.85725012870987        2.94877731791372        0.33862248193700
C           12.98692817688154        3.94319179944512        0.56909662036159
C           12.53044812997181        5.40073571458766        0.46160816606666
C           14.08235203626870        3.70988333935774       -0.48109977045386
C           13.56264149226802        3.72905898407905        1.97628125523754
C           10.55170224915545        3.35116908718883        0.04433187283648
C            9.52142553837397        2.45125786629603       -0.15936945431551
C            9.80139973474395        1.09922567562106       -0.05785152550690
N            8.98219998169201        0.00148926738108       -0.23838290370133
C            7.61290311783694        0.03533126151379       -0.52354346873593
C            6.75441240545707        0.82603857611687        0.23594995766258
C            5.40408872121249        0.85292203258684       -0.04651951904208
C            4.87352440469792        0.09428387622001       -1.08840214204107
C            3.43403670382545        0.11926457472845       -1.37903676847301
C            2.97990461470731        0.16040811964766       -2.69737189140603
C            1.62921788235009        0.18363009221082       -2.99303253877716
C            0.71704243206048        0.15661600136800       -1.95052822223604
C            1.16285243833241        0.11180540792915       -0.62086929549865
C            2.50729362503125        0.09813902815712       -0.33320587612598
C           -0.00813310211752        0.07763179255215        0.33579084133449
C           -0.00698020811016        1.30117682266050        1.25709224421585
C           -0.00873131920163       -1.21378760059698        1.15948744330346
C           -1.17958447331568        0.11469237831588       -0.62021886001194
C           -2.52386151706885        0.10432271562689       -0.33172574476115
C           -3.45156759804669        0.13275017868637       -1.37667763047596
C           -4.89093382522993        0.11165513015881       -1.08561611977763
C           -5.41732193562518        0.85567871165351       -0.03102465160116
C           -6.76753551722531        0.83092045200421        0.25226317852161
C           -7.63109162545710        0.05868194009484       -0.52041476506699
N           -9.00033155700287        0.02659555645825       -0.23530184260258
C           -9.77471098029063       -1.11096948130690       -0.11153127443725
C           -9.41961473848848       -2.44766365562832       -0.17585109636704
C          -10.40580599141298       -3.39789814606453        0.01625296186971
C          -11.73641732665848       -3.06116782050928        0.27989173253280
C          -12.82032514106919       -4.11094191332615        0.48302055431613
C          -12.29731727097486       -5.54343243167012        0.34583048198606
C          -13.41244496905056       -3.95408388698438        1.89086247188549
C          -13.91986484806506       -3.90483814415984       -0.56863096367684
C          -12.07425528182167       -1.71732442976640        0.36939411426754
C          -11.10645304047518       -0.74367817891477        0.18097784502366
C          -11.13156304164301        0.69236597941124        0.22911717368156
C          -12.14568913507916        1.61417898299021        0.45256214955262
C          -11.86410590810670        2.96968769208253        0.41324082518739
C          -12.92282207178394        4.03605685942697        0.65486169404914
C          -14.29907064380916        3.43957494853199        0.96278157128825
C          -13.05348730067770        4.91091003755271       -0.59992726521147
C          -12.50249899418006        4.90179765024684        1.85107341733347
C          -10.55229089298068        3.37190278190082        0.12822563670916
C           -9.52538647374652        2.47824616245047       -0.09756970344391
C           -9.81368394613372        1.12400562486049       -0.02892266127212
C           -7.11564667420381       -0.68424139627358       -1.57957163613864
C           -5.76373643989281       -0.65725740398223       -1.85362419901321
C           -2.99770928632530        0.17756727003385       -2.69513035844840
C           -1.64717916299578        0.19456645698054       -2.99171742813121
C           -0.73434090826341        0.15991159132018       -1.95003824356091
C            5.74116649992808       -0.69250000479569       -1.84382503001058
C            7.09295170326334       -0.72335067238293       -1.56916195801494
H           14.12615030598197       -4.70920444577856        2.18137675692137
H           12.58264282327558       -4.05795895141559        2.74170636563911
H           13.81781409862695       -2.97609251709770        2.10376006302149
H           13.46308929131068       -4.07761546849860       -1.46764018774454
H           14.65163998290567       -4.72033648421992       -0.32996541812723
H           14.34098170427192       -2.98744094091405       -0.39815365642996
H           11.82848225780539       -5.76659100951526       -0.50723231361891
H           13.05790377427794       -6.27569541634861        0.64445575675282
H           11.47957797058303       -5.76558099466113        1.23118132628226
H           10.06695305659955       -4.45935905422043        0.06511259213513
H            8.36376109671145       -2.77224523670333       -0.29734161599137
H           13.05712087076518       -1.44235920145769        0.62735679741243
H           13.12803711391057        1.23264384472777        0.61849870732155
H           12.14475965643269        5.61876291561136       -0.53163188874277
H           13.37764675946863        6.05926910081728        0.64383319317682
H           11.76500050663372        5.62728011691912        1.20028958748084
H           14.89275986169958        4.42304648606953       -0.34402792131640
H           14.49515980942764        2.70771167339765       -0.40722162037470
H           13.67553828791074        3.83712195473263       -1.48225111439282
H           12.78688896466801        3.87477950396213        2.72527865412790
H           14.36460020241567        4.43951111970050        2.16672676383253
H           13.96254728046176        2.72568964736209        2.09251222331011
H           10.31719873253699        4.39974318796757       -0.03590281872939
H            8.52995133838005        2.80282761324526       -0.40326894045479
H            7.15178466310048        1.40612730307846        1.05552947504601
H            4.75048557132544        1.48142972880199        0.54061089023222
H            3.70186462636484        0.19666549847925       -3.50033051529951
H            1.29458015680170        0.22285656713583       -4.01912075491772
H            2.85541364055239        0.04640680302894        0.68835573577874
H            0.87653929438244        1.29576844283862        1.89119472838168
H           -0.00658074066544        2.21566867211207        0.66742125016051
H           -0.89015383389327        1.29693261388068        1.89169624374533
H           -0.89219692895764       -1.25830416616239        1.79210622288205
H            0.87523570970322       -1.25943420877572        1.79134273961213
H           -0.00953838794384       -2.07947485067048        0.50040072432070
H           -2.87088874586625        0.04988960894528        0.69003656974461
H           -4.76055025096957        1.47111689181127        0.56628809143832
H           -7.16070329185851        1.39827931881374        1.08270470202754
H           -8.39915013631685       -2.74992048038822       -0.35854035232521
H          -10.11400848232125       -4.43357385405949       -0.03994179390339
H          -11.53733199308050       -5.75700554208546        1.09391934818296
H          -13.11769797939081       -6.24344862735639        0.49270397929382
H          -11.88269561500616       -5.71609657012510       -0.64470739189501
H          -13.86080937255206       -2.97368970345721        2.02503977978314
H          -14.18008872190187       -4.70614704249582        2.06192881431869
H          -12.63410291933621       -4.07770594259369        2.64114521497765
H          -13.50318493482068       -3.99502771876607       -1.56976578457218
H          -14.69923305612899       -4.65493920444430       -0.44994407688297
H          -14.37614381227322       -2.92314476263283       -0.47789880073250
H          -13.08538270504693       -1.41121351616972        0.58987399039291
H          -13.13986444032672        1.24857483912916        0.64870004619895
H          -15.01240012671221        4.24330823840194        1.13501869751420
H          -14.66202720704054        2.84236182699260        0.12948628175380
H          -14.26616302825566        2.82227848119185        1.85762758999041
H          -12.11947757361341        5.41525525300380       -0.83135092373944
H          -13.82131981331506        5.66763828267402       -0.45181185337589
H          -13.33121406613309        4.29955041427968       -1.45613377596391
H          -13.25876602691089        5.65816565435029        2.05132903454114
H          -11.55884260873768        5.40656594455199        1.66408737390093
H          -12.38811949827290        4.28392492882616        2.73943730694075
H          -10.32155406596957        4.42515692097806        0.07590076203011
H           -8.53224670854150        2.83085041174166       -0.33281941760631
H           -7.78408215915579       -1.27143503554293       -2.19143932887858
H           -5.37434703156768       -1.25155516005793       -2.66714963952428
H           -3.71959111925628        0.22153306042347       -3.49773471802838
H           -1.31315503473906        0.23566211457380       -4.01793510914801
H            5.34753189819416       -1.29749581261886       -2.64740112158476
H            7.75778681318862       -1.32566926481096       -2.17019806847906
