34
 energy: -67.064579277158 gnorm: 0.000023345778 xtb: 6.7.1 (edcfbbe)
O           -0.71051068005779       -2.19863004685890        0.02637468452793
C           -1.41981186665563       -1.18105408608415        0.02659280167001
C           -2.84905950197618       -1.19918904644486       -0.03882286578961
C           -3.53381448633613       -2.44086820747990       -0.10472729952399
C           -4.90351935512915       -2.46186845025325       -0.18305122262997
C           -5.63845008203267       -1.27238218523449       -0.21010892784785
C           -4.99661573740624       -0.02234423056383       -0.13565089714453
C           -5.70122552310378        1.19557978857941       -0.14075954155016
C           -5.02585873585911        2.41538961958284       -0.06619566877388
C           -3.65604101430200        2.45633343365775        0.03012925104235
C           -2.91158554698006        1.25082641316932        0.02777234365134
C           -3.57542975380372        0.01208231869399       -0.05176851699397
C           -1.47273037929335        1.31781880613371        0.13967276723311
O           -0.84877746922410        2.35448172395115        0.31990806951672
N           -0.79185155372895        0.07410387975784        0.06750810104564
C            0.57610948652275        0.08379841882063        0.00321887947402
N            1.28214353395583        1.14938206704856       -0.13276114014360
C            2.61294732397589        0.90258622449675       -0.11608591366431
C            3.62702758992358        1.85640947070269       -0.23178247301849
C            4.93786912057429        1.43909061770077       -0.21601918113710
C            5.24361418775115        0.07904997330633       -0.09370401566427
Cl           6.89535122694417       -0.40782305140975       -0.08497384396915
C            4.25506927534261       -0.88920228064317        0.01445425506959
C            2.93861224658887       -0.46960078395486        0.01506630714193
S            1.47226398952774       -1.43017279486659        0.08801836628730
H           -2.94590252332575       -3.34449799504254       -0.08923193557388
H           -5.42379653386751       -3.40650098745304       -0.22868499936633
H           -6.71326093904177       -1.30393191519603       -0.29616261734085
H           -6.77856694223350        1.17619741365773       -0.19305865910059
H           -5.58973241091755        3.33568004187703       -0.07908791216417
H           -3.11420648851805        3.38582473177394        0.09913417037748
H            3.36516529788858        2.89816407668520       -0.31951149565765
H            5.73951549211087        2.15556822571802       -0.29576446361606
H            4.50395188574805       -1.93547057948127        0.08792814774322
