  34
        -67.11399453
 O         -0.7583641814       -2.2121905238        0.1752583372
 C         -1.4142757627       -1.1904248426        0.1081504303
 C         -2.8730023532       -1.2009986559       -0.0175746270
 C         -3.5378523408       -2.4060263864       -0.1392389669
 C         -4.9266921203       -2.4328216636       -0.2892810947
 C         -5.6466045518       -1.2654912880       -0.3158975709
 C         -5.0040773591       -0.0161749185       -0.1866982960
 C         -5.7039742658        1.2086649192       -0.1949619278
 C         -5.0378505296        2.3983670270       -0.0479964011
 C         -3.6497773508        2.4191908015        0.1131836228
 C         -2.9278739637        1.2413317704        0.1155115132
 C         -3.5943813459        0.0094694231       -0.0358191503
 C         -1.4689693758        1.2974216581        0.2887558457
 O         -0.8788087751        2.3092571936        0.5614627948
 N         -0.7879150893        0.0584835114        0.1294895923
 C          0.6011542770        0.0794000653        0.0743850930
 N          1.2817756960        1.1333871937       -0.1714912219
 C          2.6189725481        0.8878535782       -0.1711159429
 C          3.6174453809        1.8304877648       -0.4043818282
 C          4.9346686737        1.4300903707       -0.3732279397
 C          5.2573563366        0.0975148807       -0.1134291457
 Cl         6.9254341309       -0.3669564141       -0.0833636194
 C          4.2910667023       -0.8615287885        0.1201162300
 C          2.9670675098       -0.4559549515        0.0930070078
 S          1.5297653008       -1.4074076045        0.3187536977
 H         -2.9641154150       -3.3204890147       -0.1227052864
 H         -5.4282538291       -3.3835195100       -0.3887081387
 H         -6.7204957134       -1.2870214611       -0.4344336137
 H         -6.7776258220        1.1922083673       -0.3146916504
 H         -5.5825467686        3.3301898416       -0.0538890283
 H         -3.1194410835        3.3519613371        0.2326198762
 H          3.3427424216        2.8531726276       -0.6034545802
 H          5.7273488701        2.1400596833       -0.5492882967
 H          4.5569513959       -1.8869933550        0.3186208230
