34
 energy: -67.145092844987 gnorm: 0.000098342687 xtb: 6.7.1 (edcfbbe)
O           -0.75496343443688       -2.21557761432247        0.15737762899085
C           -1.41786791910345       -1.19450190410512        0.09419272212076
C           -2.87197395613917       -1.20375170253006       -0.02968828782659
C           -3.54098830483369       -2.40893200699674       -0.15510907659107
C           -4.92954935440904       -2.43206438577284       -0.30166109368372
C           -5.64699174648384       -1.26203364165831       -0.32141936577342
C           -5.00148481867002       -0.01436925763220       -0.18874869238221
C           -5.70192884742981        1.21035984561631       -0.18841823645254
C           -5.03582549889501        2.40029560271167       -0.03445412150611
C           -3.64862221931474        2.42011882979573        0.12814804273425
C           -2.92507015776889        1.24046934193839        0.12195126744044
C           -3.59120478833432        0.00902607602736       -0.04031078863666
C           -1.47245781134253        1.29196372885599        0.30340528213014
O           -0.87614374667844        2.29597961138979        0.60504259080344
N           -0.78850116620009        0.05539558709153        0.12085863962608
C            0.59840151787037        0.07748521785618        0.06335540176008
N            1.27729076476388        1.12430386559479       -0.21602120112846
C            2.61789453512933        0.88363132080748       -0.19766599692529
C            3.61565275490045        1.82141368942687       -0.45456395228508
C            4.93421984978587        1.42639592223086       -0.39904345516422
C            5.25924228160300        0.10435570284221       -0.09240190878254
Cl           6.92778005397965       -0.35483720855785       -0.03207901022425
C            4.29313371730557       -0.84984262537611        0.16489158123954
C            2.96857130196734       -0.44811050496718        0.11464110467415
S            1.52971692397458       -1.39777894612794        0.35833813448874
H           -2.96830588888246       -3.32413389949928       -0.14277046874914
H           -5.43254825698728       -3.38149019744459       -0.40019374691609
H           -6.72050465294006       -1.28059960244783       -0.43526997583495
H           -6.77492201952491        1.19451454321203       -0.30705228834291
H           -5.57924063086962        3.33240781908937       -0.03347777057086
H           -3.11784536115899        3.35137006384027        0.25709529394148
H            3.34118318230393        2.83687136963249       -0.68890676543317
H            5.72447202418799        2.13435375322757       -0.59167878608079
H            4.55825386197306       -1.86801677340629        0.39940284512041
