  114
       -174.57110512
 C         10.9237998622        0.3553865427        0.1889331005
 C          9.4257563998        0.3163438305        0.0981566577
 C          8.7930739360       -0.1455759819       -1.0593488948
 C          9.5495309524       -0.5474093539       -2.2622828708
 C         10.4051002915        0.3372362978       -2.9107058096
 C         11.0807439666       -0.0520139951       -4.0529836199
 C         10.9143966517       -1.3300728597       -4.5590795023
 C         10.0598268725       -2.2150287556       -3.9232631699
 C          9.3766233490       -1.8252207371       -2.7858732680
 C          7.4080184189       -0.2547966793       -1.1039763385
 C          6.6481027048        0.0872615658       -0.0015767934
 N          5.2215803218       -0.0423037508       -0.0515004800
 C          4.7162671989       -1.3238888566       -0.2150212794
 O          5.4571301839       -2.2825041515       -0.2882174158
 C          3.2494708649       -1.4393760304       -0.2810559629
 C          2.6790582791       -2.6797159524       -0.4760801559
 C          1.2925567904       -2.8056276577       -0.5722947082
 C          0.4824919053       -1.7064396086       -0.4410958920
 C          1.0227131937       -0.4268570971       -0.1969833847
 C          0.2197818587        0.7390000348       -0.0434769593
 C         -1.2442278496        0.6624297337       -0.0019640985
 C         -1.9014951859       -0.2161322591        0.8605906814
 C         -3.2771546999       -0.2600571049        0.9140669141
 C         -4.0483620697        0.5681853446        0.0938546798
 N         -5.4377002223        0.5092906044        0.1327061368
 C         -6.2020013862        1.6657557655       -0.0645171859
 C         -7.4025760448        1.6082959021       -0.7714710755
 C         -8.1608444615        2.7456804960       -0.9520505840
 C         -7.7430273072        3.9765865620       -0.4485773870
 C         -8.5500022436        5.1873553448       -0.6486943117
 C         -9.9380839181        5.1435082256       -0.5358161574
 C        -10.6961630687        6.2844114918       -0.7205526181
 C        -10.0820177653        7.4874295163       -1.0261636738
 C         -8.7032901292        7.5424707483       -1.1435948051
 C         -7.9430476637        6.4037375412       -0.9542405191
 C         -6.5390794276        4.0275073247        0.2523092998
 C         -5.7822449291        2.8921603059        0.4501134515
 C         -6.0810944411       -0.7123851040        0.3768169989
 C         -7.2266918649       -0.7548959409        1.1727785169
 C         -7.8737385460       -1.9503793928        1.4227465755
 C         -7.3629209963       -3.1183751452        0.8795079053
 C         -6.2107529778       -3.0796728649        0.0795457122
 C         -5.5738101070       -1.8902556946       -0.1803602146
 C         -5.8430187079       -4.4660006815       -0.3986150366
 C         -5.8932862964       -4.5571329094       -1.9267303730
 C         -4.4594787200       -4.8737494697        0.1173791590
 C         -6.9333286953       -5.3019137923        0.2344484358
 C         -7.1319188677       -6.6631641118        0.1592984315
 C         -8.2138659471       -7.2203109352        0.8286397737
 C         -9.0820565092       -6.4246692423        1.5597278636
 C         -8.8901785809       -5.0550146530        1.6404427809
 C         -7.8114247292       -4.4963103530        0.9749900044
 C         -3.3930400386        1.4551102314       -0.7642517812
 C         -2.0168763377        1.5062534363       -0.7996144007
 C          0.8326374302        1.9717140206        0.0803978886
 C          2.2179792489        2.0955972173        0.1059909479
 C          3.0218591430        0.9771135533        0.0095337337
 C          2.4353961991       -0.2945859940       -0.1511393878
 C          4.4825479936        1.1301227097        0.0546506250
 O          5.0337372406        2.2053975780        0.1654547186
 C          7.2597152071        0.5505893879        1.1485126481
 C          8.6423333162        0.6788883262        1.1977313516
 C          9.2426907062        1.1885557249        2.4477787654
 C          9.0131042853        0.5254041455        3.6491122608
 C          9.5511746652        1.0048229281        4.8295405735
 C         10.3154622726        2.1595195192        4.8265481647
 C         10.5375717234        2.8333010709        3.6373157472
 C         10.0071476963        2.3505890398        2.4549624660
 H         11.2465801023        0.1725052632        1.2114529395
 H         11.3649227006       -0.3948979449       -0.4631720107
 H         11.3092592966        1.3286028888       -0.1119672074
 H         10.5241102914        1.3396799134       -2.5274681440
 H         11.7390773934        0.6447661862       -4.5513711705
 H         11.4472418021       -1.6342121620       -5.4481443698
 H          9.9247528337       -3.2121355025       -4.3163128814
 H          8.7101798992       -2.5132750039       -2.2861514677
 H          6.9279701451       -0.6094864458       -2.0036540111
 H          3.3253762589       -3.5392635293       -0.5701027804
 H          0.8591402560       -3.7769493094       -0.7580361272
 H         -0.5870936034       -1.8116587317       -0.5417337252
 H         -1.3230646977       -0.8415831301        1.5250121372
 H         -3.7696318325       -0.9318785785        1.6014220802
 H         -7.7327442811        0.6647402651       -1.1808976970
 H         -9.0785086327        2.6858175931       -1.5184112026
 H        -10.4220987482        4.2118593090       -0.2807761994
 H        -11.7711830493        6.2361853581       -0.6239721424
 H        -10.6752180500        8.3780040407       -1.1721289104
 H         -8.2187205359        8.4773362066       -1.3855295360
 H         -6.8691377073        6.4502454606       -1.0634701704
 H         -6.2083719468        4.9647182399        0.6751183849
 H         -4.8622105786        2.9448623797        1.0139789072
 H         -7.6026389283        0.1635311553        1.5993536517
 H         -8.7571782380       -1.9688766162        2.0428695015
 H         -4.6948254388       -1.8490660865       -0.8072680165
 H         -5.1461389728       -3.9026106416       -2.3698006396
 H         -6.8752813428       -4.2596623849       -2.2884540315
 H         -5.6989120072       -5.5769086529       -2.2503276518
 H         -4.2299714037       -5.8931090154       -0.1835898525
 H         -3.6962164579       -4.2110556383       -0.2845594125
 H         -4.4322156738       -4.8182312084        1.2036553416
 H         -6.4619538479       -7.2932928783       -0.4077269881
 H         -8.3807655427       -8.2863886309        0.7787439043
 H         -9.9177049213       -6.8790013207        2.0720269732
 H         -9.5679609922       -4.4370838937        2.2105599724
 H         -3.9746134129        2.0969184119       -1.4092502561
 H         -1.5263656571        2.1845917871       -1.4822260685
 H          0.2200231175        2.8545365176        0.1900996943
 H          2.6866563096        3.0619163322        0.2163985790
 H          6.6645722714        0.8287731474        2.0052541960
 H          8.4194346593       -0.3776558709        3.6488705543
 H          9.3722854814        0.4773929580        5.7554778660
 H         10.7336395196        2.5351818345        5.7489452766
 H         11.1254907611        3.7398058327        3.6318226107
 H         10.1674498120        2.8864476829        1.5312822848
