76
 energy: -117.276903831296 gnorm: 0.000061283906 xtb: 6.7.1 (edcfbbe)
O            7.41435978846101        3.16514995351251        1.25124638638063
C            7.52051840521630        2.06372459685747        0.62265347590861
C            8.80599289553648        1.70395538625609        0.01736567926385
C            9.25669380873226        0.37960501450598       -0.06578293696058
C           10.49607799288536        0.09437970860687       -0.60073781517275
C           11.32137067430667        1.11348524991032       -1.05625531880655
C           10.90074108073854        2.43199261894407       -0.94770579034903
C            9.66660531679988        2.72567557582926       -0.40902848320998
C            6.38496324330909        1.18693144607559        0.49271561826323
C            5.27750485638504        1.37742287084002        1.35603399203298
C            4.15955615185469        0.59453969682819        1.26799214243730
C            4.07325935717117       -0.40980242123811        0.29135243526053
N            2.93033585483182       -1.21004993308648        0.19247805261297
C            2.91744509305732       -2.59323489290780        0.11929988993766
C            3.97749808191324       -3.48687230734019        0.15407571606401
C            3.68473804030227       -4.83847883447990        0.08992001112378
C            2.37173069173321       -5.29295637171229        0.00149771607671
C            1.30883800335238       -4.40631619776026       -0.01105983505867
C            1.57862771034281       -3.04763646328239        0.05416340118473
C            0.74992736085979       -1.87133227619422        0.08649817574755
C           -0.61328321320453       -1.67118536167250        0.03790119567560
C           -1.12090431811211       -0.36684272268779        0.08079199800243
C           -2.55478591450902       -0.13044464731421        0.04339697389644
C           -3.13074132020199        0.96264231136765        0.70972998343956
C           -4.48485510762506        1.18884489517367        0.67715320361132
C           -5.33600532713097        0.33112151724993       -0.03524925680873
N           -6.70123870164990        0.55914872200737       -0.07738143436145
C           -7.20658165846856        1.86531391072824       -0.03112954569797
C           -8.37291063373575        2.14209046999995        0.68424610439435
C           -8.87484278332414        3.42852222712976        0.71909634288205
C           -8.22509842631827        4.45337744986905        0.04808828438020
C           -7.06642301616807        4.18259706259383       -0.66372742416043
C           -6.55760412559935        2.89917491905607       -0.70884997746021
C           -7.59697118818598       -0.51528651664331       -0.16939596239706
C           -8.73477960149149       -0.41455546514581       -0.97149707909255
C           -9.61849956021343       -1.47297209970269       -1.05475705611293
C           -9.38214278417352       -2.64149972211595       -0.34671635713540
C           -8.25425770498227       -2.74447665474559        0.45309246525952
C           -7.36507661951523       -1.69137041368062        0.54607541058245
C           -4.76976765547327       -0.76352753783161       -0.70541331941032
C           -3.41557719885872       -0.98633411774635       -0.66158619784411
C           -0.21982266086517        0.71862532688046        0.14587269271706
C            1.14236421868108        0.54065430160009        0.18064028456749
C            1.63799782216600       -0.76297746933311        0.17400861540393
C            5.13884432263402       -0.57923321705163       -0.60541899665079
C            6.25948265974466        0.20436536561479       -0.51643604321307
H            8.64435723650508       -0.41903074247439        0.32744898492996
H           10.83018930322988       -0.93273142432768       -0.65345874742553
H           12.28898528695920        0.88324189702223       -1.47748057473064
H           11.54255958973468        3.23453386387563       -1.28407850473382
H            9.33125169808285        3.74910106193794       -0.31259619424559
H            5.35988880923520        2.14913180889597        2.10808863079693
H            3.34877691343030        0.72056024761701        1.97126367405132
H            4.99628533954161       -3.14137585308396        0.23844975905594
H            4.49308140326171       -5.55408824301852        0.11394813418195
H            2.18318927095802       -6.35506559160496       -0.04794530457407
H            0.29162100341653       -4.76315755099248       -0.06339462716061
H           -1.28042341083272       -2.51794756477225       -0.00118855324197
H           -2.50485786609396        1.61647028441540        1.29715725664574
H           -4.90692216313663        2.01764071974773        1.22574543512237
H           -8.87194623184927        1.34688510712418        1.21791547835846
H           -9.77449607521256        3.63410585545331        1.27960201066035
H           -8.61986720154396        5.45743853063945        0.07909379263770
H           -6.56044229643827        4.97466661773920       -1.19536409064322
H           -5.66597752303316        2.68545363717468       -1.27938840359634
H           -8.91188691395952        0.49045155374298       -1.53338755157056
H          -10.49281794813270       -1.38837498452966       -1.68268166782961
H          -10.07506295788200       -3.46610606405250       -0.41563952731196
H           -8.06981621602102       -3.64806094155885        1.01471492196197
H           -6.49570872432458       -1.76487148592290        1.18250886080784
H           -5.40611925327363       -1.41717094036879       -1.28309663438647
H           -3.00305781221658       -1.81162188401123       -1.22088696001922
H           -0.61106769133974        1.72393199183340        0.12512826642650
H            1.81333549806492        1.38591399502898        0.19433079995206
H            5.04913532934900       -1.30603998478640       -1.40026300638954
H            7.04085574011724        0.09842112801821       -1.25379156375757
