76
 energy: -117.276882403751 gnorm: 0.000051650221 xtb: 6.7.1 (edcfbbe)
O            7.42829179971269        3.18270136581764        1.17131933989797
C            7.52635153709594        2.07485900208951        0.55282781784507
C            8.80487256312789        1.70809222610028       -0.06360313774131
C            9.25555231488165        0.38312433720653       -0.13491175237509
C           10.48676256212406        0.09121718054289       -0.68495701341530
C           11.30394013958131        1.10449384279781       -1.16721359201689
C           10.88443584157229        2.42414747202856       -1.06933188224238
C            9.65844746760299        2.72446384459054       -0.51579037744888
C            6.38886312003844        1.19819116124406        0.44283172107921
C            5.28753215464019        1.40193062768382        1.31115735033582
C            4.16761892287628        0.62003607494962        1.24103626665158
C            4.07305792193955       -0.39728928583620        0.27868988527980
N            2.92781256829511       -1.19607016739204        0.19619291570016
C            2.91202302451386       -2.57988505194284        0.13602036075107
C            3.97023486255448       -3.47547284157625        0.17728130709311
C            3.67451546554893       -4.82694617058896        0.12500971049497
C            2.36046621491553       -5.27947980098319        0.04206372919688
C            1.29941185018891       -4.39076489133967        0.02387969133047
C            1.57223293768530       -3.03220583360397        0.07746558365827
C            0.74601828596134       -1.85403831548626        0.10048875740246
C           -0.61686963426670       -1.65205093760607        0.05211503194213
C           -1.12220404252927       -0.34651813239520        0.08275495643425
C           -2.55584973575748       -0.10874475753278        0.04415731381035
C           -3.13023418143033        0.99176991540280        0.69944398051163
C           -4.48427785099584        1.21856815308040        0.66575469923200
C           -5.33654677790371        0.35336214613121       -0.03598478919101
N           -6.70211236877913        0.58107585376400       -0.07883085322513
C           -7.20604966196800        1.88811777767331       -0.05470682281664
C           -8.37285552226446        2.17883250845848        0.65435675065465
C           -8.87173002694319        3.46686130204479        0.66808251386624
C           -8.21846598628044        4.47962590812660       -0.01771943197593
C           -7.05963638372117        4.19487103305825       -0.72382507376228
C           -6.55395394541789        2.90969948905909       -0.74804102423902
C           -7.59678757340401       -0.49570041111048       -0.14975894649212
C           -8.73708628561707       -0.41114563982042       -0.95013923957193
C           -9.61831240865064       -1.47306978613154       -1.01318714164067
C           -9.37724458415284       -2.62885082475692       -0.28605331907062
C           -8.24706240080941       -2.71553842957242        0.51243760043020
C           -7.36026667295896       -1.65887023262904        0.58511750095119
C           -4.77198692737526       -0.74869655711796       -0.69509834388017
C           -3.41781978542997       -0.97149431252944       -0.65096735572066
C           -0.21919157093434        0.73790267728408        0.13644382489907
C            1.14278603629475        0.55787982891670        0.17107904163512
C            1.63626629164682       -0.74658250661797        0.17594459588874
C            5.13256311133889       -0.58080436539968       -0.62261363644235
C            6.25490645704374        0.20206793238492       -0.55193497820216
H            8.64971248097147       -0.41043985569705        0.27818264275808
H           10.82068057405025       -0.93637006427895       -0.72894550997788
H           12.26488909918239        0.86902268444994       -1.60063914560295
H           11.52048742551535        3.22236181638206       -1.42628811985754
H            9.32397926509252        3.74895643601724       -0.42802397838714
H            5.37620398321664        2.18368875626256        2.05204909509173
H            3.36174418574720        0.75707838543337        1.94788503181087
H            4.98989872463510       -3.13150862617980        0.25720068833594
H            4.48141242657922       -5.54400166983541        0.15388913187199
H            2.16965865834095       -6.34155233119991        0.00135752886201
H            0.28133663635341       -4.74579487490655       -0.02395077310922
H           -1.28539736071275       -2.49807844652223        0.02222887024003
H           -2.50320830130967        1.65141764268480        1.27908372112986
H           -4.90538748642357        2.05382796364714        1.20523824968233
H           -8.87455114585031        1.39343546633301        1.19989763771630
H           -9.77168449431068        3.68338034906887        1.22398844720983
H           -8.61067780456035        5.48505792713258       -0.00285228639207
H           -6.55101581050386        4.97720236162446       -1.26721947400424
H           -5.66221772516352        2.68483542936520       -1.31410609113874
H           -8.91799651034109        0.48385479802951       -1.52664209268595
H          -10.49452616879154       -1.40128070067210       -1.64005569043442
H          -10.06818052894866       -3.45628390534269       -0.33930596687149
H           -8.05887946115611       -3.60902975961453        1.08878547430160
H           -6.48885920494996       -1.71958613977476        1.22009788043293
H           -5.40973832286574       -1.40821356256789       -1.26451125847341
H           -3.00635096585484       -1.80259012963510       -1.20236440073600
H           -0.60867798165466        1.74366677251403        0.10664021865501
H            1.81513258032798        1.40213564992393        0.17564724002302
H            5.03661170540883       -1.31840004463008       -1.40672025855950
H            7.03089248901546        0.08475108509361       -1.29322766543340
