76
 energy: -117.356591969291 gnorm: 0.000045913158 xtb: 6.7.1 (edcfbbe)
O            7.41771282338754        3.41848375539591        0.59834868076031
C            7.52701157439316        2.24373755567256        0.27459920707331
C            8.84317797239008        1.66429429357995       -0.08737364062807
C            9.18024989973079        0.35037589533227        0.23589668887872
C           10.43361303587653       -0.14054402309219       -0.08180919898148
C           11.35661846726689        0.66652383042540       -0.72857084011869
C           11.03191240582363        1.97701542360334       -1.04355386152046
C            9.78636284508841        2.47724372132940       -0.71477917848902
C            6.35286096483429        1.34471038242918        0.23328335322107
C            5.28093715602015        1.59802047491798        1.09082720563088
C            4.16251870691695        0.79324712790511        1.07967745568089
C            4.07863388833944       -0.27345777319859        0.18328622504844
N            2.94518882441232       -1.08762124386962        0.15990087274368
C            2.93942237280672       -2.47229939746939        0.15459740374267
C            4.00085179520331       -3.36292708538453        0.22846153361758
C            3.71086022204581       -4.71474706647767        0.24286153036671
C            2.39812981400235       -5.17817728771898        0.19600845563599
C            1.33632525933427       -4.29610759069774        0.14998640852693
C            1.60358294261790       -2.93356981843608        0.13461199182134
C            0.76649568015838       -1.76474957429194        0.11626782418361
C           -0.60706135876575       -1.58420007745596        0.07059339358189
C           -1.12302778672180       -0.29396064991793        0.04413579778608
C           -2.57546058930209       -0.07383496495143        0.00861356280444
C           -3.16697766186080        0.94117740054546        0.75985411625795
C           -4.53131417762332        1.14125790922946        0.73929568505867
C           -5.35313561481939        0.33667934540997       -0.05059194082753
N           -6.73755370966984        0.53793987274281       -0.07733728084088
C           -7.25784262347234        1.83649200681128       -0.02353634445649
C           -8.42760787788391        2.10222837548370        0.68891798705000
C           -8.94059582347983        3.38429474880403        0.73338045820108
C           -8.29562207898571        4.42216003610672        0.07990425698991
C           -7.13023539086711        4.16518485096597       -0.62436538730777
C           -6.61464356596875        2.88473741477607       -0.68245638025941
C           -7.60185292698521       -0.56100459642884       -0.15327158564947
C           -8.77139318646191       -0.49129135773654       -0.91066777971054
C           -9.62316138418152       -1.57697427835190       -0.97888633077044
C           -9.32194831012783       -2.74970804108883       -0.30502084867282
C           -8.15942628333329       -2.82613680233198        0.44518375174680
C           -7.30588071778604       -1.74282074404547        0.52666947392645
C           -4.76652197705444       -0.67416863278692       -0.81282597842630
C           -3.40313401442460       -0.87718307942860       -0.77504299389472
C           -0.24496371840858        0.79906095147378        0.03929864982643
C            1.12564583853813        0.64141327049728        0.07762857533050
C            1.63285051316490       -0.64885801905987        0.13942158444717
C            5.13478366299984       -0.51221981769191       -0.69752952573557
C            6.26121524784261        0.28314316182181       -0.66816275823041
H            8.47028182150803       -0.27357372767774        0.75836618635964
H           10.69250688126496       -1.15655568545734        0.17730839893059
H           12.33170794553666        0.27663767666462       -0.98064691345384
H           11.75212230358595        2.61009932274468       -1.54030552536560
H            9.51813276927196        3.49831808721429       -0.94542460799317
H            5.35587333400121        2.42649534096047        1.78008477131431
H            3.35512897691823        0.97365132291850        1.77278955661798
H            5.02181445307568       -3.01784654573461        0.28567788136426
H            4.52114857884250       -5.42716256843490        0.29599940941763
H            2.21227216470356       -6.24212429359114        0.20658163739546
H            0.31774201918524       -4.65372349844504        0.13309195347495
H           -1.26758769044095       -2.43797157068331        0.07288936452301
H           -2.55188678860603        1.56320526856398        1.39378642554274
H           -4.97331055398066        1.92166366934156        1.34191191760495
H           -8.92798051313467        1.29726514223757        1.20766564319188
H           -9.84645115555608        3.57559079477713        1.29036825056379
H           -8.69767369315455        5.42343223222650        0.11992922669282
H           -6.62257918760651        4.96683586943942       -1.14128203379458
H           -5.71150025460383        2.68604195515062       -1.24114580320901
H           -9.00446963816135        0.41825201031331       -1.44518270981811
H          -10.52459280856237       -1.50941924630456       -1.57075242250392
H           -9.98851362974866       -3.59706406441276       -0.36341263465106
H           -7.91876991537192       -3.73411502191146        0.97914146915203
H           -6.40492903002645       -1.80241346839631        1.11998946711364
H           -5.38961589479325       -1.29641040476631       -1.43897387858068
H           -2.96753641998848       -1.65356896514287       -1.38706799762125
H           -0.65530531575901        1.79625488468199       -0.02163239311791
H            1.77717736792101        1.50139600807798        0.04369227879016
H            5.05489974406943       -1.31203719575323       -1.41800358487314
H            7.06066599966869        0.10417327172976       -1.37122009297636
