76
 energy: -117.356599807823 gnorm: 0.000029825738 xtb: 6.7.1 (edcfbbe)
O            7.53735678919767        3.58861218948600        0.69552253427841
C            7.67171405044129        2.41894508288771        0.36301453986141
C            9.00061703828178        1.86874788815070        0.00201273918012
C            9.36227920502836        0.55975353204192        0.31853312586822
C           10.62656264943147        0.09583093651446        0.00365692031368
C           11.53610378636679        0.92511090817181       -0.63401914202710
C           11.18655197440079        2.23066742616594       -0.94285909691581
C            9.92995534007262        2.70414962026509       -0.61644082089371
C            6.51611637029002        1.49671248395613        0.30940811545029
C            5.43699758938062        1.71888179684670        1.16653707426319
C            4.33425033916742        0.89305006319603        1.14179719354266
C            4.27318398027307       -0.16340015983620        0.23150905588112
N            3.15404679136752       -0.99648840484444        0.19264558346700
C            3.17100634608742       -2.38087688827691        0.16775644194873
C            4.24653206344574       -3.25507886074840        0.23369753357759
C            3.97857722228100       -4.61149864549583        0.22801926956361
C            2.67378065665393       -5.09552183859425        0.16924344931491
C            1.59788838236562       -4.23034101296239        0.13089089415609
C            1.84294947506950       -2.86355235145336        0.13558980798588
C            0.98686746289019       -1.70842901420608        0.12936432675746
C           -0.38926983732983       -1.54973689704125        0.07922668875953
C           -0.92619612716906       -0.26784296087024        0.06659724951941
C           -2.38168023285942       -0.06986061208722        0.02636630979855
C           -2.99169759044467        0.92965887305711        0.78366798587480
C           -4.35844894250529        1.11139468216730        0.75648721471691
C           -5.16442223531067        0.30270585989814       -0.04539734688573
N           -6.55111545344097        0.48672221609286       -0.08020252742049
C           -7.08766431598546        1.77844484624726       -0.02379700182350
C           -8.26582893898673        2.02642222300375        0.68117511285478
C           -8.79434339345296        3.30207642822152        0.72849538771168
C           -8.15701169904838        4.35099924105627        0.08526379967236
C           -6.98355461093563        4.11162382148287       -0.61176606028883
C           -6.45224680086478        2.83774658046679       -0.67253529717867
C           -7.40081214455287       -0.62271821794543       -0.16703124463430
C           -8.56514602921909       -0.56506093513927       -0.93340191978966
C           -9.40225601225923       -1.66136241818164       -1.01243947316896
C           -9.09124330337314       -2.83264780405320       -0.34049966214705
C           -7.93390272917493       -2.89696039419485        0.41879788614786
C           -7.09487089210099       -1.80319323297860        0.51077818779779
C           -4.55972258160913       -0.69407652658994       -0.81193922228107
C           -3.19380038605075       -0.87826104841625       -0.76833247664825
C           -0.06590571404403        0.83922936502853        0.07997227103331
C            1.30685133853056        0.70349373003667        0.12369447259730
C            1.83476466541053       -0.57902193068881        0.17172012725858
C            5.33693659907747       -0.37189461530975       -0.64778612694174
C            6.44820483431060        0.44392072698423       -0.60433416095689
H            8.66231627015067       -0.08138124962544        0.83365591427533
H           10.90455435930181       -0.91636997563295        0.25787093431310
H           12.51993976152086        0.55629196009238       -0.88391411272929
H           11.89603901100923        2.88087388248850       -1.43288537714283
H            9.64249713926626        3.72106327209399       -0.84228752346341
H            5.49376857589124        2.54041728185561        1.86576856495956
H            3.52137254941389        1.04904836160335        1.83444551584305
H            5.26152053076008       -2.89437337168487        0.29993928842337
H            4.80001932899503       -5.31147019488831        0.27471507639139
H            2.50533709434921       -6.16240096757516        0.16427099904788
H            0.58536745402024       -4.60425756788666        0.10459383804591
H           -1.03557527096006       -2.41423700266203        0.06722574743606
H           -2.38907752111781        1.55427511900347        1.42695025541353
H           -4.81475174046946        1.88046496507038        1.36301081281512
H           -8.76043749182411        1.21284916142534        1.19196083979516
H           -9.70649408150168        3.47965339446987        1.27972211503679
H           -8.57129538853450        5.34718264641952        0.12751715615227
H           -6.48174120387925        4.92191533501162       -1.12085996623724
H           -5.54265772364464        2.65275664136555       -1.22545405282935
H           -8.80564718744849        0.34348943484082       -1.46631666972583
H          -10.29975518270605       -1.60320264482075       -1.61123307673247
H           -9.74626585305382       -3.68836214297842       -0.40726087147069
H           -7.68596770587305       -3.80370517697149        0.95150499088410
H           -6.19777074131586       -1.85341107036113        1.11077108751830
H           -5.17073741043727       -1.31984836425532       -1.44643546254886
H           -2.74410993139020       -1.64309418752584       -1.38467727905839
H           -0.49202622045794        1.83033572347237        0.02900134410627
H            1.94431401059203        1.57438731377497        0.10398941554548
H            5.27459103190780       -1.16414669827665       -1.37824370296410
H            7.25371455832427        0.28817837069928       -1.30600852024736
