  74
       -109.47308045
 C          7.0488595451       -1.5688397822        1.0972407283
 C          5.7119463862       -0.8572503210        0.8948442110
 C          5.1696123726       -0.4500699078        2.2807148752
 C          5.8409994453        0.3906986648        0.0464771196
 C          7.0403575136        1.0098278939       -0.2692162736
 C          7.0660769528        2.1721573619       -1.0212011583
 C          5.8854302527        2.7241721295       -1.4870540904
 C          4.6815270888        2.1115374448       -1.2007825111
 C          4.6528099020        0.9574644545       -0.4234545075
 N          3.4403319873        0.2936134814       -0.1833616249
 C          2.2891299436        0.9938827364        0.1001812219
 C          2.3945702523        2.2749205842        0.7139995948
 C          1.2524227297        2.9447537755        1.0405069362
 C          0.0005204175        2.3631948809        0.7635929710
 C         -1.2483964519        2.9408394756        1.0617117738
 C         -2.3942350382        2.2742617197        0.7419056384
 C         -2.2961804510        1.0039057292        0.1047054659
 N         -3.4471655634        0.3122221751       -0.1945463760
 C         -3.5080330447       -1.0878049903       -0.3554288121
 C         -2.5089941438       -1.7987062818       -1.0076316724
 C         -2.6334944314       -3.1653499501       -1.1755419772
 C         -3.7616784558       -3.8209910191       -0.7197657781
 C         -4.7608269031       -3.1103830422       -0.0764758068
 C         -4.6485004830       -1.7441452601        0.1254779059
 C         -5.6763928687       -0.9190573450        0.8801063244
 C         -5.0978306034       -0.5811154935        2.2698262971
 C         -7.0004202723       -1.6547824478        1.0815978930
 C         -5.8410601616        0.3701882583        0.1020388404
 C         -7.0551188921        0.9909688407       -0.1477754352
 C         -7.1142268584        2.1872561059       -0.8422398010
 C         -5.9538625580        2.7716258517       -1.3190471345
 C         -4.7360397803        2.1595310937       -1.0973264150
 C         -4.6727443092        0.9726523196       -0.3735104120
 N         -1.1385142108        0.4330115889       -0.1435869140
 C         -0.0031855476        1.0704403878        0.1670880178
 N          1.1291483307        0.4259557568       -0.1418447457
 C          3.5108417582       -1.1120968052       -0.2673869103
 C          2.4981520540       -1.8684264421       -0.8434807146
 C          2.6297997826       -3.2416834811       -0.9336880968
 C          3.7781609925       -3.8607528454       -0.4773281447
 C          4.7899927344       -3.1056269248        0.0913248436
 C          4.6711255351       -1.7308392172        0.2166624219
 H          6.9173320311       -2.4411649859        1.7319753234
 H          7.7516729199       -0.9083639126        1.5989905033
 H          7.4721160263       -1.8817153618        0.1455867929
 H          5.0395283840       -1.3346021741        2.9006141622
 H          5.8704439706        0.2228221055        2.7713273512
 H          4.2094093416        0.0513675830        2.1968160662
 H          7.9736196137        0.5940007778        0.0742218145
 H          8.0107685317        2.6426173326       -1.2480593244
 H          5.9019121795        3.6221364316       -2.0860488803
 H          3.7563628263        2.5153853298       -1.5849083359
 H          3.3656504441        2.6854737481        0.9422561145
 H          1.2942008053        3.9121573999        1.5234417591
 H         -1.2848684396        3.9041133879        1.5532652008
 H         -3.3617365648        2.6806682755        0.9909181658
 H         -1.6375406722       -1.2771175182       -1.3604050720
 H         -1.8499781898       -3.7136461441       -1.6763638778
 H         -3.8690468899       -4.8863272381       -0.8596585190
 H         -5.6300514026       -3.6423024602        0.2746430384
 H         -4.9424283603       -1.4962290276        2.8372095181
 H         -4.1446282371       -0.0666495560        2.1863424722
 H         -5.7895243960        0.0575503805        2.8158550566
 H         -7.4489731947       -1.9188093912        0.1267151263
 H         -7.6939774872       -1.0307631084        1.6397800252
 H         -6.8422178055       -2.5596093925        1.6624211963
 H         -7.9736129043        0.5499394014        0.2039027410
 H         -8.0693305115        2.6589284180       -1.0162332774
 H         -5.9969575868        3.6956614956       -1.8755237250
 H         -3.8272097661        2.5898514297       -1.4913931461
 H          1.6103492103       -1.3749538020       -1.1961135109
 H          1.8352329429       -3.8245343101       -1.3742891098
 H          3.8910085411       -4.9317145753       -0.5573648051
 H          5.6743086783       -3.6092455557        0.4464031648
