99
 energy: -149.929080025798 gnorm: 0.000038283264 xtb: 6.7.1 (edcfbbe)
C           -0.39788352931005       -2.21961820109734       -4.46995694369509
C           -0.31268831750968       -2.03093851187395       -2.98968601577490
N            0.88065324928177       -1.77374642969946       -2.48686570387034
C            0.97906103835412       -1.58615098909167       -1.16724950266425
N            2.23085593412175       -1.32886535541414       -0.65253271048507
C            2.48032788699464       -1.31859224729799        0.72964348964579
C            1.92929669827945       -2.29060960993595        1.56259724049686
C            2.17908509020447       -2.27485323764764        2.91961445610666
C            3.00951669284955       -1.30593005437641        3.45729836805996
C            3.61886850713223       -0.38634808056322        2.62395686682093
C            3.37450104406809       -0.38536691148787        1.25664376225081
C            4.05602507936936        0.59364907251378        0.31712326189519
C            3.16866085454835        1.81743800350235        0.11824551824777
C            2.57173866750776        2.42331306044482        1.21930224038390
C            1.84147132613653        3.58944139766996        1.07469316382392
C            1.69084715268768        4.16754855906955       -0.17515672322518
C            2.26683498741668        3.56150554558853       -1.27728088948087
C            3.00027981653321        2.39576859086349       -1.13297484792896
C            5.40595505203744        0.99725020935385        0.89810952764072
C            6.30731360115452       -0.01496500926474        1.22000329315685
C            7.55273777934084        0.28476831821682        1.73587248085546
C            7.92270809394866        1.60525912130667        1.93509804288360
C            7.03829944804989        2.61664399230404        1.60904333934343
C            5.78801204991872        2.31631157186439        1.09199127226838
C            4.28942133429490       -0.12366438709216       -1.00171588319934
C            5.40693779901507        0.14902436336157       -1.77934350078918
C            5.61666313950798       -0.50536379802933       -2.97894295901021
C            4.71075695626010       -1.46150914346824       -3.40301130802438
C            3.59197659318871       -1.74547340429858       -2.64386353566756
C            3.35627212688795       -1.05866043413078       -1.45679975931921
C           -0.16194629121184       -1.59821692449794       -0.36368164038548
C           -1.36060071924146       -1.94984868887348       -0.98367814059673
N           -2.53858314244232       -2.03679962888667       -0.28824385521500
C           -2.63568350182208       -1.77830718999954        1.09159387753630
C           -1.93064381983467       -2.52681408801969        2.02337943694248
C           -2.09278194650992       -2.26825545173653        3.37256647200034
C           -2.96800770076240       -1.28019695378351        3.78961326724797
C           -3.68482713666551       -0.54269698454480        2.86071178751669
C           -3.52764843772384       -0.78599702736248        1.50726116761944
C           -4.19074020702546       -0.00330794230189        0.38606199362736
C           -5.28778485084676        0.90178743274047        0.89409613044086
C           -5.24993375091998        2.27726268903543        0.71813212849137
C           -6.27467642301880        3.07488506290736        1.20021150827249
C           -7.34824325464758        2.50873447405578        1.86358447513513
C           -7.39349068042640        1.13594472981593        2.04514380674231
C           -6.37137466947032        0.33952748293772        1.56470862654644
C           -3.07996206661267        0.75336245911823       -0.34691935733372
C           -1.94234259485310        1.17340022842393        0.33123506562614
C           -0.87820679265042        1.72910976255622       -0.35486529536806
C           -0.94344191284777        1.89547003050398       -1.72657958585147
C           -2.09472470523688        1.53197410651401       -2.40239880516120
C           -3.15529293680792        0.96582540078210       -1.71835027954088
C           -4.70701370653550       -1.05291118983903       -0.58749597861149
C           -5.95569302522575       -1.04318321809118       -1.18393342530746
C           -6.28099465094373       -2.00136588214337       -2.13083042179402
C           -5.35790365020459       -2.96680230265144       -2.49270056775394
C           -4.10683392422966       -2.99242616801393       -1.90137921914686
C           -3.78434704268736       -2.03582748457467       -0.95303119378568
N           -1.42825808912111       -2.17175867199848       -2.30012412821666
H           -0.16882419826369       -3.25534328808662       -4.71725323970061
H            0.32777482978232       -1.58029706594753       -4.96400819817781
H           -1.40479621751426       -1.99599380631026       -4.80864266654182
H            1.31777637813478       -3.06946215734816        1.13347431231747
H            1.73598765798966       -3.02705571437936        3.55479877293755
H            3.20109876213656       -1.28025666405294        4.51924985962036
H            4.30230822658944        0.33859050576578        3.04166378166412
H            2.68586157449773        1.98541691100591        2.19989676224069
H            1.38970809006438        4.04914691300701        1.94197334213247
H            1.12372450067661        5.07953335302324       -0.28785792655701
H            2.15505340240276        4.00290911370837       -2.25722339507262
H            3.45138797995421        1.94180043617056       -2.00249239355672
H            6.02402734468690       -1.04594550356324        1.06102572844523
H            8.23811943409652       -0.51313309324401        1.98158751656933
H            8.89612697399095        1.84223897530167        2.33835116261383
H            7.31940499391246        3.64964050546083        1.75419013754549
H            5.11433082489879        3.12073204614999        0.83741923490342
H            6.11692052851971        0.89072488667763       -1.44425386725248
H            6.48748914660448       -0.27287950701966       -3.57328699297221
H            4.87718909085425       -1.99627425473219       -4.32615218550159
H            2.88788188125911       -2.48911127985186       -2.97211596030621
H           -0.13363123695266       -1.31657230583274        0.67355064741988
H           -1.26587691522943       -3.30834957927539        1.68804735539670
H           -1.53915895661103       -2.84414432643725        4.09877215131633
H           -3.09205274304733       -1.07749492468527        4.84272981037551
H           -4.35424433300098        0.23647576681136        3.19357799538156
H           -4.41643799735886        2.73040028431880        0.20201556091343
H           -6.23145811952193        4.14453675219508        1.05520612535436
H           -8.14653959940479        3.13224933307746        2.23832257434046
H           -8.22777152941085        0.68488717937701        2.56256395297305
H           -6.40858900649627       -0.73144464556629        1.70787523258687
H           -1.87451512718672        1.04708974631449        1.40248136748576
H            0.01011593415688        2.01962909503066        0.18374229151345
H           -0.09969869985977        2.30678516787152       -2.25984065644070
H           -2.16400731266993        1.67162094612294       -3.47117679927931
H           -4.04078172212734        0.66865022096273       -2.26061645531902
H           -6.67075186679360       -0.27566626044080       -0.92693555289834
H           -7.25613844841332       -1.98261575531034       -2.59437533356810
H           -5.61297281306638       -3.70655309345404       -3.23663936767193
H           -3.37656623403314       -3.73429897651343       -2.17758957536416
