99
 energy: -149.831825287502 gnorm: 0.000107044285 xtb: 6.7.1 (edcfbbe)
C            0.05662782905575       -5.84625648627027       -0.08766270179505
C            0.04016408318567       -4.35191978393611       -0.06736677753179
N            1.18918067500238       -3.73083587532218       -0.22867927240145
C            1.19490287018996       -2.34768028390562       -0.24438215547452
N            2.36678410357305       -1.62251455902526       -0.46931433407792
C            3.51925884330267       -1.80788510947196        0.28429231166416
C            3.82936542958698       -3.05832305328104        0.81892385182353
C            5.00949530100642       -3.23980522051494        1.51032402524459
C            5.88275680810580       -2.17830877521366        1.68891683012360
C            5.56358251538433       -0.92727661344565        1.18533059130566
C            4.38705882363437       -0.72347706541289        0.48441243230371
C            3.94413870632812        0.64578853149373        0.01065550204613
C            2.87143922014416        1.20680377792737        0.94939709165811
C            2.47892014928360        0.55396395181715        2.10935263542445
C            1.44358927211570        1.05309512381347        2.88205800161820
C            0.78737474755940        2.21218772116028        2.51247152605462
C            1.19003442832796        2.88584654553006        1.37124784625715
C            2.22025473064979        2.38540147189683        0.59725895067075
C            5.14525575580364        1.56101967327965       -0.11496099141076
C            6.08912360646239        1.28601839651723       -1.10100470041809
C            7.21602318530584        2.07346374434115       -1.23818182679263
C            7.42227196911638        3.14557922318001       -0.38511059225966
C            6.49830020344261        3.41495770130320        0.60819652853560
C            5.36789473779465        2.62605967307258        0.74587194621844
C            3.21889603788485        0.47442338486345       -1.31230917919628
C            3.26363276408763        1.41244460846782       -2.32940158314697
C            2.47993017402832        1.27033600615941       -3.46287823450701
C            1.62399151557548        0.18347163737720       -3.57964964278273
C            1.56439832341787       -0.76006191287933       -2.57887255935199
C            2.36524151141368       -0.63171353942718       -1.43991720732262
C            0.02483143152610       -1.64798820574341        0.00183490360484
C           -1.14060673301701       -2.37547750338829        0.20361016738896
N           -2.32626921595820       -1.67643244342307        0.43826917808698
C           -2.36379206006065       -0.75412408843704        1.47344781733495
C           -1.62212014776162       -0.96988485281095        2.63835763294572
C           -1.72171634512796       -0.09185569297306        3.69473203605988
C           -2.54204855679811        1.02444348252569        3.60066041052614
C           -3.26542788308874        1.25349880464890        2.44135864642338
C           -3.19533014589720        0.37224878485023        1.37655756182925
C           -3.91026754022963        0.60446891632476        0.06292186719821
C           -5.08865138381638        1.53538071589251        0.27048102707525
C           -5.14045727509267        2.81259801951551       -0.26811858231136
C           -6.23303537442663        3.63057613172319       -0.02974710646416
C           -7.28280496593018        3.18529770366325        0.75275300158554
C           -7.23269739412064        1.91577363423027        1.30580308312930
C           -6.14330080592814        1.09998250737220        1.06897481508615
C           -2.91974614928476        1.14354018691479       -0.97419545207821
C           -1.64894516259239        1.58173865901677       -0.62601304636438
C           -0.76363921580817        2.01709986846358       -1.59799570453852
C           -1.14004149408601        2.03965589729398       -2.92786969181814
C           -2.41126877076117        1.62128975490148       -3.28264293164563
C           -3.28950894580387        1.17081245128976       -2.31516599948428
C           -4.35090582174496       -0.74723003471881       -0.47334588769536
C           -5.52582557858018       -0.92968365373795       -1.18303073203312
C           -5.81286081218382       -2.14569728448033       -1.78254252515059
C           -4.90671545343517       -3.19102293844980       -1.69530461298492
C           -3.73219976414813       -3.03276895986697       -0.98986530141224
C           -3.45677850714813       -1.82143814918993       -0.35459821949169
N           -1.11345487665701       -3.75632991430356        0.11944805152735
H            0.70738040065837       -6.19933133668184       -0.88323172609382
H           -0.95120708396576       -6.22567671704848       -0.22525545297742
H            0.44713604273064       -6.21497410381553        0.85962017858024
H            3.13690399164669       -3.87222018368846        0.67001624200552
H            5.24764350969697       -4.21165882817691        1.91604461173497
H            6.80220538761756       -2.31615192654922        2.23735177670330
H            6.23106790675822       -0.09628975844765        1.35808315330960
H            2.97934433484230       -0.34986902101287        2.42288176882734
H            1.14942674139037        0.52682906627501        3.77723743581452
H           -0.03041976822445        2.58882654933382        3.10863703759230
H            0.69413972386149        3.80009411367615        1.07831946488917
H            2.52644221958418        2.91583805075022       -0.29295536756848
H            5.93384066727055        0.44509581309915       -1.76215048250152
H            7.93699042269611        1.84908156324182       -2.01065153897380
H            8.30205619612362        3.76286380655371       -0.49142163801749
H            6.65655091896353        4.24212902618208        1.28485725485075
H            4.66051222182617        2.84172823038966        1.53300384763515
H            3.91897727657633        2.26679444910850       -2.23896214011495
H            2.53259686849209        2.00965327218738       -4.24760936525751
H            1.00788690935247        0.06852049764581       -4.45850217762849
H            0.91273587895974       -1.61579096637668       -2.66898165000676
H            0.01881206060504       -0.56843275068164        0.02646068692314
H           -0.99113629689382       -1.84354675666479        2.70286806022122
H           -1.16670577526351       -0.27895948436783        4.60180646675083
H           -2.61565791537779        1.71625094934874        4.42598590658888
H           -3.88730030755632        2.13296541830780        2.36348346472229
H           -4.32472352140918        3.17659628161518       -0.87499789007051
H           -6.25986490208006        4.62199631452303       -0.45814185608733
H           -8.13417954952017        3.82414322032523        0.93557374732148
H           -8.04434265881309        1.56178611874768        1.92449244882113
H           -6.10282951635045        0.11202828412819        1.50575462042418
H           -1.33827481378264        1.59320407843660        0.40907003131654
H            0.22699667013079        2.33509139763727       -1.30963077275751
H           -0.44745793752848        2.38336961084886       -3.68097189430961
H           -2.72032132838281        1.64026397530778       -4.31765670728180
H           -4.27573061976597        0.83831398357165       -2.60372081505696
H           -6.22319770792821       -0.11016805377521       -1.28032352222546
H           -6.73262740378346       -2.26692174963054       -2.33457924049955
H           -5.11764627584622       -4.13252115874733       -2.17988666231674
H           -3.01953787075031       -3.83791840231123       -0.90330846005743
