99
 energy: -149.828176490823 gnorm: 0.000070535684 xtb: 6.7.1 (edcfbbe)
C           -1.15243509402177       -5.12713198491395       -0.71811481972457
C           -0.76778144679207       -3.82227442981477       -0.10646239015503
N            0.46700084603240       -3.42793448115048       -0.18002288907502
C            0.84770310081964       -2.23616232978613        0.37459125463495
N            2.13328159110402       -1.71320839125116        0.22679838267245
C            2.80791056279096       -1.31118968306880        1.36616735986517
C            2.53991774460830       -1.93019085021092        2.59442450313797
C            3.23641214676253       -1.56569708518646        3.72367112225319
C            4.20938888653442       -0.57534595123044        3.65514957538916
C            4.47327737568718        0.04826508081952        2.44539507949796
C            3.78687456371428       -0.30560848140044        1.29693827870895
C            3.97544751054022        0.42388509145500       -0.01468768795379
C            2.89696387317682        1.50333382705950       -0.16267234833091
C            2.01865363661990        1.81674566433094        0.86630036471977
C            1.03815548445422        2.77901589457263        0.69012620321427
C            0.92368243046188        3.44827600904455       -0.51467630417538
C            1.80083541104390        3.14997194918084       -1.54414773920778
C            2.77412281690144        2.18310906797107       -1.37058295123693
C            5.37698902468173        1.00398271791466       -0.07146183573055
C            6.45224992848990        0.12167931582173       -0.13371467577935
C            7.75070422074386        0.59254792467731       -0.15932562386976
C            7.99619583786579        1.95547513209670       -0.11479493786168
C            6.93417815188650        2.83788673751645       -0.03661829344604
C            5.63169682137201        2.36634705242394       -0.01173076076548
C            3.73303717538661       -0.55009477827812       -1.15367165139972
C            4.38515448435568       -0.43902044835957       -2.37091989244702
C            4.04400191818272       -1.25073711604092       -3.44098251277168
C            3.02302896507078       -2.17893072612838       -3.30539478256558
C            2.36452870209972       -2.31209247504636       -2.10174577980749
C            2.72746594617557       -1.51857901057474       -1.01038355147252
C           -0.13294961263522       -1.40521596567158        0.96961800449863
C           -1.42480025103777       -1.86858768629266        0.97881755402607
N           -2.49493588494932       -1.09572604303468        1.36409887496868
C           -2.35388576348103        0.23424591080354        1.78458692876834
C           -1.58472937761280        0.57479419406980        2.89132757036423
C           -1.52066580213076        1.89370735097253        3.29932379853860
C           -2.22412958961196        2.87119321920668        2.61212079532123
C           -2.99390982819797        2.53244139682883        1.50904774577662
C           -3.06833576827568        1.21755036970043        1.08845104485403
C           -3.80429200991311        0.72334607061803       -0.14462336577277
C           -4.71345810464007        1.78052139713124       -0.72537918782313
C           -4.55737342419424        2.26205786925180       -2.01699075769570
C           -5.41219708576863        3.23300094653562       -2.51235428388808
C           -6.43187045725741        3.73513435469129       -1.72418641619423
C           -6.59337950077563        3.26215428463994       -0.43200028442396
C           -5.74081924119915        2.29367893154587        0.06292011016881
C           -2.74752283666967        0.23535922388986       -1.14239843447639
C           -1.48179790734602        0.80766609198534       -1.17985129142370
C           -0.49897876857306        0.29608513279607       -2.00868856724111
C           -0.77006237814786       -0.78734637965198       -2.82470095410972
C           -2.03948252731716       -1.33845020269031       -2.82377020101213
C           -3.02096004275322       -0.83047758917680       -1.99207788583921
C           -4.56780816915035       -0.51144387139043        0.31064047875931
C           -5.87911252160921       -0.80798909153462       -0.00961710286684
C           -6.42950790057417       -2.02735871241244        0.35863036713281
C           -5.66323169748704       -2.96368544329044        1.03407175597218
C           -4.35253967846003       -2.68025257259382        1.36986916607960
C           -3.80649672171587       -1.45510937639787        1.01239469119064
N           -1.72693409919395       -3.12472306036050        0.50654271079896
H           -1.64136379422755       -5.75267566681301        0.02535484597930
H           -0.27145956475124       -5.63066363934179       -1.10439909102102
H           -1.86148211543953       -4.95293752336281       -1.52556701738086
H            1.79210007951513       -2.70775269836193        2.63219594268780
H            3.02722507723060       -2.05405530126868        4.66358821978578
H            4.75301418183300       -0.28420560622563        4.54045990237598
H            5.21556999041922        0.83117842808015        2.39899167937007
H            2.09779399798585        1.31926220156859        1.82149249009895
H            0.35870462596444        2.99979587922215        1.50074709647762
H            0.15681692765056        4.19626460261953       -0.65183516477867
H            1.72360061692435        3.66729156997571       -2.48933989220861
H            3.44698088102983        1.95469699093066       -2.18379469389789
H            6.26272061264630       -0.94214382185293       -0.16225704424431
H            8.57379688293784       -0.10492823237680       -0.21170548625510
H            9.01047109394063        2.32570459167435       -0.13548128182727
H            7.11631505777788        3.90177728043072        0.00843705165113
H            4.81342864923850        3.06753581271161        0.05936118006582
H            5.16974138801842        0.29431701804396       -2.48955660130176
H            4.56238170842539       -1.14400078134033       -4.38179896412529
H            2.74099448181731       -2.80003781699332       -4.14256328873389
H            1.57540608818855       -3.03677865105136       -1.97674046067674
H            0.13217227204946       -0.41366974924548        1.29641062322045
H           -1.05250962931083       -0.19582916268456        3.42886388309529
H           -0.92196884715257        2.15985289777764        4.15807216664178
H           -2.16819770162102        3.90195463764812        2.92915197555277
H           -3.52031039817186        3.30267849840750        0.96505970439656
H           -3.76444486303492        1.87851787647431       -2.64197317249821
H           -5.27839416142761        3.59731983400543       -3.52061420848248
H           -7.09788601653279        4.49152781906230       -2.11261155613651
H           -7.38619433479769        3.64917824655926        0.19164643759930
H           -5.86831708616412        1.92685034566820        1.07184060220766
H           -1.25014500003358        1.65173291814723       -0.54699417306570
H            0.48492216471013        0.74190423659067       -2.00722128841473
H            0.00446230322115       -1.19532321705880       -3.45707678826431
H           -2.26711602518507       -2.17649316628413       -3.46653492359756
H           -4.00425004320986       -1.27760564538703       -1.99389192793012
H           -6.47019458319512       -0.10047032017985       -0.57249276349770
H           -7.45387961112025       -2.24986479450147        0.10017412917102
H           -6.09140359232314       -3.91705581212705        1.30545313425028
H           -3.74466578850435       -3.39785042465625        1.89642133871179
