  99
       -149.93323508
 C         -1.2442457000       -4.8490538658       -1.1699175624
 C         -0.8542322973       -3.6168333098       -0.4214958850
 N          0.4138627609       -3.2400367392       -0.5005729193
 C          0.7713493352       -2.1605733251        0.1922586364
 N          2.0864889038       -1.7105698006        0.1421175840
 C          2.6941555118       -1.2799996849        1.3231840756
 C          2.3911490173       -1.9035160076        2.5331122794
 C          3.0253127814       -1.5161507475        3.6959147393
 C          3.9848174665       -0.5174640601        3.6635512145
 C          4.3009810086        0.0924655578        2.4629348071
 C          3.6642059340       -0.2769081350        1.2870598440
 C          3.9174554678        0.4246049062       -0.0308260224
 C          2.8354190596        1.4772964256       -0.2715655002
 C          1.9617630528        1.8786990989        0.7306253173
 C          0.9931877576        2.8368341699        0.4827736413
 C          0.8846490098        3.4135693155       -0.7699269656
 C          1.7540651384        3.0243039960       -1.7750196596
 C          2.7175915042        2.0634515660       -1.5281185022
 C          5.3062725501        1.0390127042       -0.0113266696
 C          6.4022994844        0.1838029052        0.0725746038
 C          7.6878113820        0.6862363819        0.1241161570
 C          7.9000234674        2.0553368644        0.0981490285
 C          6.8168525057        2.9118168999        0.0252366202
 C          5.5270304169        2.4082855392       -0.0262264456
 C          3.7933604824       -0.6042579856       -1.1445836471
 C          4.5531045580       -0.5167820131       -2.3021260197
 C          4.3506704486       -1.3884409406       -3.3569199188
 C          3.3740806352       -2.3639875667       -3.2593229536
 C          2.6234984272       -2.4843559673       -2.1063819438
 C          2.8247788958       -1.6091148937       -1.0430601849
 C         -0.1470439612       -1.4372313003        0.9442598388
 C         -1.4671107649       -1.8820245689        0.9084583915
 N         -2.4936876164       -1.1704324109        1.4689396838
 C         -2.3171360684        0.1696887939        1.8786295913
 C         -1.5548334675        0.4913835334        2.9914169802
 C         -1.4274878399        1.8159920037        3.3715622612
 C         -2.0676112663        2.8085008360        2.6490692550
 C         -2.8379122523        2.4850465767        1.5434262539
 C         -2.9735603739        1.1641979042        1.1502607386
 C         -3.7436742533        0.6912399010       -0.0714992431
 C         -4.6336735242        1.7808285420       -0.6254636625
 C         -4.4865748613        2.2748706542       -1.9131705858
 C         -5.3237999953        3.2747896312       -2.3804980650
 C         -6.3154467318        3.7934659937       -1.5676920511
 C         -6.4667203003        3.3085482465       -0.2786145415
 C         -5.6320957105        2.3111378041        0.1882901738
 C         -2.7300210133        0.1762472467       -1.0979499767
 C         -1.4377898643        0.6836573944       -1.1466273115
 C         -0.4990594167        0.1440327453       -2.0087282337
 C         -0.8416928732       -0.9015791952       -2.8465002385
 C         -2.1391495411       -1.3837870664       -2.8362513687
 C         -3.0759132110       -0.8494461055       -1.9707730725
 C         -4.5419728885       -0.5220033254        0.3859112084
 C         -5.8618224542       -0.7789162428        0.0551830899
 C         -6.4556980617       -1.9701070412        0.4403342415
 C         -5.7334988058       -2.9170169183        1.1458337081
 C         -4.4152268635       -2.6720431732        1.4876373599
 C         -3.8280913227       -1.4769866054        1.1097597110
 N         -1.8024849286       -2.9984551375        0.2520413401
 H         -2.3237628882       -4.9585441925       -1.1498540876
 H         -0.7797738540       -5.7193032457       -0.7099720050
 H         -0.8898949445       -4.7826280860       -2.1954033770
 H          1.6584322041       -2.6967430396        2.5500711028
 H          2.7773166170       -2.0021689846        4.6277931558
 H          4.4832243359       -0.2113068756        4.5706583742
 H          5.0394215669        0.8800297060        2.4410085394
 H          2.0369986013        1.4523724322        1.7201296078
 H          0.3200369767        3.1294805615        1.2762490182
 H          0.1279998592        4.1598192165       -0.9631794711
 H          1.6808353189        3.4684517963       -2.7569778452
 H          3.3874197884        1.7652861964       -2.3211245468
 H          6.2385356844       -0.8842572498        0.0978597419
 H          8.5270091728        0.0090060409        0.1873312800
 H          8.9043619234        2.4503850330        0.1386035082
 H          6.9718771010        3.9808771677        0.0110302799
 H          4.6919603319        3.0914220981       -0.0737662997
 H          5.3108084231        0.2494626666       -2.3831480772
 H          4.9483795737       -1.2984618353       -4.2514766970
 H          3.2031790853       -3.0452001264       -4.0798045107
 H          1.8707030240       -3.2488317083       -2.0116157459
 H          0.1447638896       -0.5345211094        1.4517575977
 H         -1.0701808520       -0.2928958344        3.5535765193
 H         -0.8291508685        2.0711693274        4.2334174216
 H         -1.9658928023        3.8425031880        2.9442180054
 H         -3.3206161032        3.2674752272        0.9770598680
 H         -3.7149142117        1.8789450753       -2.5566206822
 H         -5.1979302827        3.6489126457       -3.3860581682
 H         -6.9675011359        4.5723793958       -1.9343569513
 H         -7.2371721618        3.7087133536        0.3642981197
 H         -5.7511556712        1.9347546547        1.1948470153
 H         -1.1484470993        1.4963686790       -0.4969976225
 H          0.5066942545        0.5371557848       -2.0138519256
 H         -0.0999329996       -1.3352722036       -3.5006282659
 H         -2.4235525599       -2.1909178195       -3.4951270416
 H         -4.0803806119       -1.2459723168       -1.9634605598
 H         -6.4235322254       -0.0595725858       -0.5223462974
 H         -7.4840458790       -2.1626074829        0.1730090232
 H         -6.1977274112       -3.8487102036        1.4321553385
 H         -3.8344948142       -3.4003956172        2.0298185033
