122
 energy: -184.559737587678 gnorm: 0.000102928610 xtb: 6.7.1 (edcfbbe)
C           -8.24602405071356        3.67727568857862        0.54000156672078
C           -6.97693198940143        4.40513503435647        0.05751933708345
C           -7.33632063004428        5.80285031607352       -0.48102689382366
C           -6.03482211102989        4.55991528524044        1.23566904131172
C           -6.46286049982269        5.25063252345830        2.36222368216315
C           -5.67123147957222        5.38653233952055        3.48723564944159
C           -4.42120348763954        4.79429359455187        3.50667419049612
C           -3.97003648352696        4.10697907660686        2.39936856152023
C           -4.75040661531288        4.00642774473596        1.24301341539478
N           -4.25854897635165        3.32261343618713        0.13595744129341
C           -2.92606174608178        2.84961580647578        0.15861280814127
C           -1.86166809413417        3.75529348648723        0.19913972234534
C           -0.57271842496013        3.28269890411939        0.21232793351003
C           -0.30865030716754        1.90872171527456        0.17168836507902
C           -1.37215853680631        0.98388148108963        0.12189930154745
C           -2.67484760064787        1.48724845403955        0.12969941631136
C           -1.09043663478528       -0.44343881497556        0.04304642089011
C           -2.10481355756547       -1.40042201767007       -0.02841475905177
C           -1.82116237819872       -2.75224858104654       -0.14140886915277
N           -2.87588787568502       -3.68909809965217       -0.23412605288020
C           -3.69458421890283       -3.68697555706439       -1.35975060307453
C           -3.45894918211553       -2.77604029277906       -2.39482740915841
C           -4.26789818876279       -2.73854979045295       -3.51114091510822
C           -5.32448200973185       -3.62370078243610       -3.62637907161020
C           -5.53318513068521       -4.55465971069276       -2.62628007069568
C           -4.73405187639387       -4.61434369247166       -1.49157776484145
C           -4.99215793379906       -5.69835110767536       -0.46253765291935
C           -6.42939714704500       -5.54934680967332        0.07171927968368
C           -4.81568842110534       -7.06861320837309       -1.14380210755091
C           -4.03268630659620       -5.60486595721691        0.70796713001590
C           -4.14361340796691       -6.51399284781686        1.75235736100101
C           -3.33163524529305       -6.45426268749110        2.86941814355203
C           -2.39585111104528       -5.44026877163094        2.96864359155106
C           -2.26192595679008       -4.52739655159398        1.94363923767529
C           -3.04969728902441       -4.61339207479926        0.79108281649129
C           -0.49240219600790       -3.18674481935418       -0.17334216057085
C            0.52157749690465       -2.26505656652284       -0.09047098914522
C            0.24506052655836       -0.89663988343728        0.01612270465036
C            1.33568057615882        0.04441495260809        0.09172162793441
N            2.57644974927768       -0.40946989700325        0.08256078153866
C            3.57523138930440        0.48297890476081        0.15491601832388
C            4.91179043381106        0.03521483087103        0.15526445258760
C            5.94562678379003        0.93156640830754        0.23264578555217
N            7.29052609099081        0.50681706618644        0.22073747684217
C            7.85587574259650        0.02480464017993       -0.95901046935642
C            7.06313628129673       -0.14367160976185       -2.09718819412586
C            7.59778310229798       -0.62733811464173       -3.27342103031605
C            8.94217264097296       -0.94447028119479       -3.33805927032297
C            9.73413531982216       -0.75046943704819       -2.22212207896219
C            9.22250208523795       -0.26373701147958       -1.02566407196869
C           10.16405890304216       -0.03423970796852        0.14133487908186
C           11.22072629458497        1.00383014647470       -0.28034285309342
C           10.84208076942547       -1.36892597502895        0.50519804186773
C            9.43301803755806        0.48374502629612        1.36423161883575
C           10.14050549102945        0.72481019148533        2.53469487859031
C            9.52218962128854        1.16173030593576        3.69133230223263
C            8.15099890883888        1.34040189759234        3.69902949367708
C            7.42460652935258        1.10869028268076        2.54955285164064
C            8.05504256476236        0.71342623074180        1.36631973998533
C            5.66337476160099        2.32957118238434        0.31978113388152
C            6.73456964281733        3.24991451232146        0.37303564924604
N            7.59322483234654        4.01021846361998        0.39782775394229
C            4.36752673810567        2.79212360599369        0.32540587945941
C            3.29791891779410        1.88039159626106        0.24403182105952
N            2.03524054980896        2.33294915175769        0.24912417054232
C            1.05866494906575        1.44717364085658        0.17267849639568
C           -5.03420196391573        3.12604758453352       -1.00282459383875
C           -4.49131762735507        2.47650460866263       -2.11636830604716
C           -5.24445436417694        2.25063871504593       -3.24941121025973
C           -6.55667252555740        2.68456428708296       -3.30217779404651
C           -7.08317177251777        3.36502288090717       -2.22038857688348
C           -6.34723250164094        3.60537277201138       -1.06700421010632
H           -8.73569527708698        4.23524631968713        1.33301404575083
H           -7.98549315590292        2.69229198502860        0.92386212431753
H           -8.95474402074008        3.55184861006943       -0.27363707194097
H           -8.03500660465808        5.73102789283695       -1.30984359140226
H           -6.43793918179736        6.30788013913753       -0.83227127778794
H           -7.79073571412341        6.41183815518933        0.29548259790670
H           -7.44561444777729        5.69685064362589        2.36819726908816
H           -6.03317827426864        5.93564969561767        4.34339321356223
H           -3.79498722345429        4.86164719762233        4.38422196290121
H           -3.00026951397317        3.63537358069100        2.43459789816564
H           -2.06422176959758        4.81538204327892        0.21722247145400
H            0.26772332210815        3.95790556835959        0.24046944057120
H           -3.52375716649616        0.82331411840392        0.10560863827082
H           -3.14208269001704       -1.10817152622285       -0.00209315512852
H           -2.62565031875421       -2.09383114010181       -2.33165210482770
H           -4.06568990531752       -2.01997145157992       -4.29169008980034
H           -5.96895919143186       -3.60194189092683       -4.49221765046777
H           -6.34341932179057       -5.25852615548892       -2.74014829831124
H           -6.54615470375690       -4.58189238428325        0.55742510556646
H           -7.15261664343823       -5.61706733184822       -0.73597536392568
H           -6.65663647615312       -6.32626160471183        0.79612335255674
H           -4.99617242040998       -7.87653381647551       -0.44025063878145
H           -3.80065354910995       -7.16566157728545       -1.52564635077789
H           -5.50646474798746       -7.18016020096562       -1.97482625763792
H           -4.88708017051767       -7.29451434409677        1.69828986794219
H           -3.44096058466834       -7.18110546997084        3.66015245313214
H           -1.76998196534429       -5.35408284020245        3.84475101917525
H           -1.54048182814052       -3.73116491716213        2.04184878872842
H           -0.27811273002740       -4.24061934096877       -0.26579480531932
H            1.55565624996983       -2.56999034408682       -0.11752643556810
H            5.10318362232108       -1.02513351719635        0.09288016093600
H            6.01536343309516        0.11323002179319       -2.06705738545081
H            6.96052521829870       -0.75076708126323       -4.13654487869336
H            9.37297937263600       -1.32785965750971       -4.25038628092737
H           10.78584835439841       -0.98126878019884       -2.29160092629755
H           10.73564700055287        1.94540354642633       -0.53227174052992
H           11.92456112532407        1.18704597646788        0.52652289744496
H           11.77676340209834        0.66051941671678       -1.14812261850004
H           11.38551830031138       -1.77161409655098       -0.34451434211239
H           11.54304339086323       -1.23599561641417        1.32402252677060
H           10.09099529594710       -2.09585533274178        0.80967727299578
H           11.20814740691095        0.56906734274261        2.54911233015569
H           10.10429008978829        1.34737345601659        4.58105730179093
H            7.64123451687364        1.65420094163844        4.59790384699145
H            6.35137388717256        1.22909178556864        2.57475424958692
H            4.15156694891792        3.84826524520196        0.38293424524616
H           -3.46221276184861        2.15322267229841       -2.10100931028759
H           -4.79995413146452        1.74100364912837       -4.09157134247799
H           -7.15932681020401        2.51008665970423       -4.18073533241897
H           -8.09941651183853        3.72291964161532       -2.28352182400252
