122
 energy: -184.560632186165 gnorm: 0.000044751221 xtb: 6.7.1 (edcfbbe)
C           -8.27648681787243        3.65076986951270       -0.81718802495608
C           -7.25059416862520        4.12563396608715        0.22964793142557
C           -7.89222504133411        5.15828752070415        1.17541372233341
C           -6.80090165347626        2.93629059773941        1.05553901252091
C           -7.74580006147369        2.21834148669452        1.77805299531437
C           -7.39981385020615        1.15701012695970        2.59262355748930
C           -6.06456407854963        0.82201954441437        2.72765546648015
C           -5.10683192511338        1.51956475641153        2.02227703149040
C           -5.45853020020613        2.55338814636869        1.14741350108543
N           -4.47328342432654        3.21027767119977        0.41393193414319
C           -3.14857027768273        2.71858791843179        0.44799243877784
C           -2.09674339542155        3.51495610371544        0.91119377244687
C           -0.81289796155331        3.02448017461393        0.88213150698297
C           -0.54620983367833        1.72409572432793        0.43895176345027
C           -1.60795720441563        0.88532606576537        0.04628970593869
C           -2.89323664752203        1.42550271532727        0.01992818762227
C           -1.34322069060047       -0.49869846550398       -0.32163515182109
C           -2.37569362865320       -1.40509164882957       -0.51899807173942
C           -2.14816133828118       -2.73245778226477       -0.89370106787819
N           -3.19679115066819       -3.60433762324770       -1.05394323802561
C           -3.03141667713718       -4.98615902855995       -1.29369517986711
C           -2.33553814721243       -5.43845574208117       -2.40769384442442
C           -2.23053227110934       -6.79596970113184       -2.64849001610013
C           -2.84152731772506       -7.69432046539687       -1.79144447666295
C           -3.56759493009392       -7.23903855638058       -0.70304544049793
C           -3.67678143872275       -5.88268743526472       -0.43609873918467
C           -4.45437532339878       -5.29461762783202        0.73016211364759
C           -5.37982916357006       -6.31734445713691        1.39012373755786
C           -3.45697542754367       -4.79541472783031        1.79646575751516
C           -5.21324624500868       -4.10400773020437        0.16774620013356
C           -6.52775818739417       -3.79217898294162        0.48202525337432
C           -7.15311269083333       -2.69145666730160       -0.07975598421186
C           -6.48597606818477       -1.90696104650494       -1.00376847300243
C           -5.17971437314422       -2.20871732533015       -1.34250857875095
C           -4.53247593947960       -3.27397614072576       -0.72779462201258
C           -0.81059084705519       -3.16001894826638       -1.01456585857355
C            0.21965187052920       -2.28684850203854       -0.79042491869549
C           -0.01143668547119       -0.94833879732982       -0.44233754096709
C            1.08177651696643       -0.07140328483399       -0.14040507266757
N            2.32352586294844       -0.50743075475535       -0.28813283738011
C            3.32505657927686        0.31715566352523        0.05006742787236
C            4.66071504568802       -0.10625498919979       -0.11070219667082
C            5.69757067838630        0.71503708565410        0.24380824789747
N            7.04259003860269        0.30434561761440        0.09490660821576
C            7.82068323654221        0.93166330330733       -0.87267810101379
C            7.21423314794006        1.79424185889412       -1.78991778987165
C            7.95709077976608        2.44339245907423       -2.75401220870151
C            9.32108812633044        2.22923556263455       -2.82893729076717
C            9.91578797203044        1.34533756746602       -1.94767611273576
C            9.19174692668635        0.67911045593051       -0.96798724373794
C            9.89812698181728       -0.30472604541808       -0.05565453779493
C           10.99508269192568        0.44406239429636        0.72396247630813
C           10.52133896823067       -1.41524314090943       -0.92277093135742
C            8.94474868399950       -0.93816347496601        0.93994511801518
C            9.43240150124866       -1.86557532615831        1.85176469335241
C            8.62544042867973       -2.45449481383822        2.80724899230981
C            7.28997028158301       -2.10164006059113        2.87242365072415
C            6.77850546783025       -1.18513649707520        1.97702369239737
C            7.58694847839834       -0.60786729246987        0.99435761190613
C            5.42608527098132        2.00933610755167        0.77974216908683
C            6.50354771449868        2.83364357730649        1.16954219974117
N            7.37317849121627        3.50384757453790        1.50372675144735
C            4.13012532409539        2.45111662465014        0.93563684629478
C            3.05862541628855        1.61939328856798        0.56901874875103
N            1.79549269251972        2.06143200016649        0.70421655927671
C            0.81640661663288        1.25250708770797        0.35309085338928
C           -4.78309607759398        4.28345397110548       -0.41746663990642
C           -3.79008174887982        4.85963729877292       -1.21652533524301
C           -4.06089900710743        5.94546693961664       -2.02256807539743
C           -5.33847736598191        6.47426718544459       -2.06007074746814
C           -6.33492962393469        5.87385075462345       -1.31404896571880
C           -6.09058410417594        4.77506486470977       -0.49990382905330
H           -7.81497264493288        2.92604303838939       -1.48599421133605
H           -8.63710489823647        4.48439794124718       -1.41301575393572
H           -9.13111244431206        3.18144974756450       -0.33830103646145
H           -8.74221876591064        4.72902671130154        1.69845754634468
H           -8.23614259234018        6.02872829522801        0.62377648382716
H           -7.16396447738793        5.48612739395879        1.91544122387156
H           -8.78664077235437        2.49521695083202        1.70809057318679
H           -8.16127539164162        0.61365952362602        3.13140627082163
H           -5.76237170711573        0.02078197595357        3.38587824563204
H           -4.06808069304266        1.26215248279113        2.15886744864762
H           -2.29864700236731        4.51232434099159        1.27170434404224
H            0.02009576039363        3.63001564112449        1.20314040931220
H           -3.72589359677357        0.84432979096256       -0.34215988993237
H           -3.38754034504340       -1.09249606404448       -0.33295742348647
H           -1.89380661676918       -4.72523859245881       -3.08777378163153
H           -1.68402150760141       -7.14808152708533       -3.51055818360823
H           -2.76417889909928       -8.75544426827103       -1.97572748878199
H           -4.04849488153610       -7.96037684652879       -0.06304570529104
H           -6.10977845861782       -6.69990798622976        0.68034031099386
H           -4.79900576589450       -7.14660876404440        1.78546310591573
H           -5.90279245802065       -5.86296701875313        2.22761282204900
H           -3.99869896542681       -4.33691090144105        2.62117885145047
H           -2.76592678402504       -4.06049529947440        1.39277560308990
H           -2.87831961451082       -5.63264959396766        2.18105318821504
H           -7.08068721610965       -4.40450066768571        1.17514355544895
H           -8.17095664007693       -2.45686550938510        0.19311786752010
H           -6.98243970779332       -1.06817052815851       -1.46831822423221
H           -4.66206107019213       -1.63022600708716       -2.09361927851265
H           -0.59131205410200       -4.19077742727641       -1.24093445761756
H            1.24376416609715       -2.61912313045659       -0.85782910108556
H            4.84765607837469       -1.08973229025555       -0.51425555596941
H            6.14652856079069        1.95410496033413       -1.75374995518569
H            7.46536455563908        3.11167445155088       -3.44547997281988
H            9.91564000601067        2.73580302825354       -3.57386185541795
H           10.97799748372220        1.17356462470099       -2.02969194016803
H           11.53038452799730       -0.23090899539340        1.38569718322150
H           11.71193792406495        0.89571538652422        0.04419303538715
H           10.54817450561069        1.23400305994402        1.32543733718462
H           11.21834114128885       -0.99738905891145       -1.64338203587148
H           11.05656620431666       -2.13238383816204       -0.30715985154099
H            9.73971049449817       -1.94317914741442       -1.46655308971241
H           10.47654606935421       -2.13651551003113        1.82247886793796
H            9.03851971766372       -3.17273579584755        3.49906848187252
H            6.64162305538671       -2.53395065825874        3.62028133163681
H            5.73679452594540       -0.91014981110330        2.04526951444911
H            3.91940847222927        3.42986226978915        1.33986906568214
H           -2.79303271899044        4.44811386079075       -1.21533888407123
H           -3.27105904729701        6.37284702501622       -2.62284617730067
H           -5.56191038049112        7.33170443055727       -2.67683154700524
H           -7.33512071325818        6.27484485460484       -1.37557091917930
