122
 energy: -184.518604373767 gnorm: 0.000096346493 xtb: 6.7.1 (edcfbbe)
C           -8.47441091331534        3.50907930050606        0.09947041962566
C           -7.23602841100939        4.20646349023330        0.69536880267154
C           -7.64057363619910        5.54222425576761        1.34836142914847
C           -6.63687734377235        3.30851619528633        1.75928922357672
C           -7.40011816997922        2.94909784603303        2.86219210510945
C           -6.90067175712623        2.14433107668007        3.86975802354529
C           -5.59615686504187        1.68505319320107        3.78937802982289
C           -4.81502744824876        2.02537945314456        2.70666394510639
C           -5.32232177442084        2.82833088834661        1.67714726292008
N           -4.51660712080959        3.14769948885986        0.59951592295188
C           -3.18060395619660        2.65515718340035        0.56070108283304
C           -2.11878825989607        3.49712078511077        0.91624139957003
C           -0.83739460116939        3.01813151707593        0.85330760618164
C           -0.57324374352135        1.69955783483535        0.44745827459483
C           -1.64233866473971        0.83614685481944        0.10774784263352
C           -2.94206940765297        1.35562336451562        0.16723438530474
C           -1.35894500422180       -0.52249309860607       -0.29844196912767
C           -2.36797619027706       -1.43656019163498       -0.60588973802257
C           -2.09915921055624       -2.73446231931536       -1.02991094832956
N           -3.12227543214634       -3.61438390353918       -1.32370956419505
C           -2.91612890995906       -4.97784923069030       -1.61818589134545
C           -2.09263070405617       -5.36877908918533       -2.66763197673717
C           -1.94348270745108       -6.71093506869332       -2.96373274345147
C           -2.63798366050801       -7.65777726748816       -2.23152224777252
C           -3.49546263636082       -7.26385827817382       -1.21726811558761
C           -3.65035448765175       -5.92445665627988       -0.89511343889314
C           -4.57341061851051       -5.40272641941950        0.19339276537727
C           -5.55715358009771       -6.46471923059415        0.68536353098880
C           -3.72383903352860       -4.94479419491328        1.39729665347804
C           -5.27269832432088       -4.19464808639645       -0.40633243837210
C           -6.62548437045132       -3.92303931237062       -0.26985168575850
C           -7.19018486132412       -2.80303054044153       -0.85771143313632
C           -6.41337151257418       -1.95319812946985       -1.62541514755989
C           -5.06465665522971       -2.21212830695068       -1.78484526346334
C           -4.48793474608903       -3.30654834774082       -1.15015513010037
C           -0.75138957216650       -3.15219813092136       -1.06353655327040
C            0.25214840106739       -2.27858289247981       -0.75530718900079
C           -0.01282689512285       -0.94887997158065       -0.38514201856652
C            1.06200937022930       -0.06952686760677       -0.06660088629242
N            2.33001271885660       -0.48438210639649       -0.17033390786641
C            3.33081388364679        0.33274965706564        0.13313280320996
C            4.66748829197921       -0.08012687383895        0.01761833478794
C            5.70094305306701        0.77172826864495        0.34568755513594
N            7.05427264989739        0.34625944064384        0.21651270356960
C            7.74651356360256        0.67514866966143       -0.93481991887607
C            7.07396492437961        1.30725645713117       -1.98727180083174
C            7.73464260703606        1.64463788607254       -3.14841058046750
C            9.08216120110644        1.35437202172328       -3.28216027506449
C            9.74714435654587        0.72329305817984       -2.24680683104659
C            9.10774116333078        0.37127986363356       -1.06594750431719
C            9.88857152746569       -0.32144755044034        0.03238475591245
C           11.04099969124209        0.60127466000394        0.47337381780788
C           10.44669711089046       -1.64738528888822       -0.52045750108776
C            9.02288348782894       -0.62312682045968        1.23894421157147
C            9.57863541073487       -1.25586389892722        2.34264122369232
C            8.83710718772127       -1.54642420726037        3.47321913794477
C            7.49734701047614       -1.19815784882379        3.51640985566480
C            6.91840263656587       -0.56985574023573        2.43529122628537
C            7.66605611135439       -0.27718834458166        1.28867531717834
C            5.43338021049579        2.07337346779234        0.80816878354877
C            6.49845371676972        2.92106416395469        1.14427151455882
N            7.37920759705259        3.60912008918600        1.42058825515530
C            4.10876691713255        2.51291010030337        0.92640567640742
C            3.05164879778678        1.67219645981167        0.59462089774522
N            1.77874043078424        2.07649828927745        0.69385579245006
C            0.78479291823012        1.25256628998615        0.36938529588146
C           -4.96019928613538        3.95156066413553       -0.43457843225971
C           -4.10961023166029        4.22004293504295       -1.51474845447905
C           -4.51863819745931        5.02575693060212       -2.55485391418245
C           -5.79022324619184        5.57538998693177       -2.54190739442513
C           -6.63908162100549        5.29736712923013       -1.48615026266005
C           -6.25481286187259        4.48897460487258       -0.42459125492476
H           -8.18484477051073        2.56263597868991       -0.35367506065591
H           -8.93666257410743        4.12855010918547       -0.66353249827652
H           -9.21329140293477        3.30942227406922        0.87004671878090
H           -8.35704157692911        5.38037917732461        2.14844149460396
H           -8.09043535714924        6.20870196001107        0.61825102416103
H           -6.76296059085805        6.03212872236760        1.76659330433869
H           -8.41504730210972        3.30618422433580        2.94398392069689
H           -7.52222539377282        1.88327702732191        4.71271320791996
H           -5.18415717741945        1.06390215555035        4.57069608944110
H           -3.79720160667546        1.67183736163404        2.65253889314400
H           -2.32166904351095        4.51081627154922        1.22688702044278
H            0.00586731996775        3.64020355172151        1.11159641392831
H           -3.79090894368082        0.74609376809964       -0.09888261854241
H           -3.39463930414009       -1.14033148455527       -0.48315407707610
H           -1.58675233594762       -4.61926038006519       -3.25810258388536
H           -1.29655394729136       -7.01304721516048       -3.77386478698942
H           -2.52518309793970       -8.70732437085523       -2.45898741539736
H           -4.04171418774507       -8.02014525422028       -0.67780227017843
H           -6.18393269758146       -6.82419854660900       -0.12772353585865
H           -5.01621608842433       -7.30371143640005        1.11549948879097
H           -6.18997052234364       -6.05406091030670        1.46797307472529
H           -4.37104803711686       -4.53486959728217        2.16996955715421
H           -3.00242821718080       -4.18202480311892        1.11719184154883
H           -3.18092314648547       -5.79300267113083        1.80919647733781
H           -7.25784841015881       -4.58293005096138        0.30108214864888
H           -8.24378658110811       -2.60497134833646       -0.72880675629096
H           -6.85661986692752       -1.09725896355036       -2.11252450994850
H           -4.45865661915111       -1.58032230213447       -2.41732390972778
H           -0.50719080309683       -4.17506378169703       -1.29972218173689
H            1.28314305249552       -2.59732056572067       -0.77621708263149
H            4.87388885291213       -1.07876362747090       -0.33524368886122
H            6.02286905549688        1.53309184667272       -1.88833011976954
H            7.19586051510409        2.13408097874769       -3.94598376765339
H            9.61087538635945        1.61632744569500       -4.18581584560051
H           10.79644026089770        0.50305091134805       -2.36728236031026
H           11.63423182829895        0.13278367159290        1.25318886236226
H           11.69440537415882        0.82962452089737       -0.36352323222047
H           10.63845122747871        1.53568291977644        0.86101003159238
H           11.08322329079058       -1.46801454682304       -1.38183755645551
H           11.03086497923200       -2.16443818670827        0.23499031440281
H            9.62680337356599       -2.29493331331374       -0.82631539296049
H           10.62183328345026       -1.53072497317764        2.32607112293236
H            9.30152477554635       -2.03843776088847        4.31409307353902
H            6.90148498681289       -1.41346333769060        4.39081800025594
H            5.87414986923826       -0.29866330615503        2.47271825351273
H            3.89791561163442        3.51233989339780        1.27478677657845
H           -3.12069027973982        3.78920070418802       -1.53243095781891
H           -3.84460958813467        5.22222230743480       -3.37527388175192
H           -6.12003168816364        6.21096988943101       -3.34956520229001
H           -7.62949095289727        5.72552364884525       -1.49574578194081
