73
 energy: -117.012078028656 gnorm: 0.000041137639 xtb: 6.7.1 (edcfbbe)
N           -3.61200813127341       -0.78387515798174       -0.92258955822026
C           -2.52228554635089       -0.53466644838192       -0.59900999114577
C           -1.24822578282101       -0.24887333585889       -0.17246586923794
C           -0.74805184555558        1.11795262840501       -0.14258881952821
N           -1.65588753791438        2.15860588198417       -0.35984025410783
C           -1.53887994071843        3.14270512643860       -1.31940828098686
C           -0.54425274232825        3.33854808841187       -2.26770383207099
C           -0.68271823192815        4.40447193969009       -3.13703233440666
C           -1.78346819588865        5.25482649941004       -3.07306016852051
C           -2.78919239819180        5.05076514864045       -2.14489061489718
C           -2.67321287500976        3.98759036163677       -1.26335491968217
C           -3.50950536351002        3.47705409833122       -0.21022219449355
C           -4.72378947028542        3.87654084879884        0.32491527625225
C           -5.25077014029647        3.15439988385036        1.38099591006079
C           -4.57236164573257        2.06113541245575        1.91340829634002
C           -3.35809999561718        1.64891314191759        1.40004895014946
C           -2.84127875205668        2.34759482992394        0.31797659602684
C            0.58299693542065        1.36587387198256        0.01337235131350
C            1.51631054342860        0.31072696498208        0.16695921727019
N            2.85865888559826        0.58680624716631        0.40122794753046
C            3.93342239722409       -0.02903854929938       -0.20915610145963
C            3.95103701062705       -0.98716500962865       -1.21384631424715
C            5.17837339433131       -1.42384591572937       -1.67411684195961
C            6.36906163342665       -0.91509199346755       -1.15794045621137
C            6.36081326117644        0.06282117630642       -0.18041343760995
C            5.14020588639441        0.51702648677808        0.29619550973158
C            4.76316895861936        1.51377313245677        1.25811870944778
C            5.48266066865600        2.36998811812487        2.07793016614321
C            4.78973658705469        3.20509149065690        2.93512444871482
C            3.39730217715451        3.17843548413669        2.99367127685139
C            2.65839834246825        2.33604419180201        2.18483960958886
C            3.34576478637439        1.51815391644127        1.29694875114043
C            1.05205218000795       -1.02853011625626        0.16821949608046
C           -0.27508536122733       -1.31065395434993        0.03629150525467
N           -0.73299290415716       -2.63119409454822        0.05313089705974
C           -0.26476975710127       -3.66264737991577       -0.73313240385058
C            0.70956794221344       -3.64740396715875       -1.72074166160465
C            0.97558582881497       -4.82907232374401       -2.38621860636704
C            0.28600793983184       -6.00057028136756       -2.08460024080338
C           -0.70558116807190       -6.01626218452370       -1.11958175115586
C           -0.98952943656171       -4.84244279187281       -0.43957189080928
C           -1.94105457686417       -4.49136609067790        0.58072555745358
C           -2.90670601396244       -5.20337848553932        1.27410143551999
C           -3.65397608858029       -4.54293672430113        2.23339756451948
C           -3.43376296752470       -3.19729468565033        2.51569581960973
C           -2.47257895956185       -2.46962457584670        1.84143029234812
C           -1.74412330557984       -3.11745020910674        0.85390841041609
H            0.30345140418808        2.67379392671948       -2.33604061761376
H            0.07792953179033        4.57909610483702       -3.88326062649810
H           -1.85455707264248        6.07909173207588       -3.76674367872377
H           -3.65036532325296        5.70043100008681       -2.10928512504143
H           -5.24371718297113        4.73398873188313       -0.07463129749276
H           -6.19875030213086        3.44592360116197        1.80762466920253
H           -5.00188525661585        1.52693454740512        2.74737509115785
H           -2.83123757301027        0.81182773861823        1.82977289565605
H            0.94211479039192        2.38389514375982       -0.00027996719793
H            3.03607564883141       -1.36986767813021       -1.63739468985854
H            5.21569260365449       -2.17037842804746       -2.45317220469278
H            7.30940762626730       -1.28373032919728       -1.53925090289530
H            7.28372805941077        0.47143838796931        0.20228968501382
H            6.56168285247974        2.37744455912690        2.04887473514466
H            5.33198855012369        3.87964912324646        3.58050308813869
H            2.88511005728301        3.82446916915299        3.69076522588761
H            1.58226454676667        2.30447931703208        2.25856937300184
H            1.75374467413863       -1.82885884484915        0.34981782911902
H            1.23099837919673       -2.73746572833461       -1.97433979985448
H            1.73075521300698       -4.84309018034699       -3.15787365975720
H            0.52373562672327       -6.90600628226604       -2.62242860122399
H           -1.25313265786453       -6.92083313807668       -0.90309589437516
H           -3.06938529566861       -6.25053152794859        1.06881731144798
H           -4.41484549968529       -5.07902090070918        2.78051558849505
H           -4.02250136002775       -2.71418152107904        3.28080506297918
H           -2.29275157972131       -1.43314738201646        2.07929843655328
