73
 energy: -117.102897402498 gnorm: 0.000063462705 xtb: 6.7.1 (edcfbbe)
N           -0.00407127513032       -3.93911910535551        0.00024808061342
C           -0.00288942810969       -2.79220598543767        0.00012957747222
C           -0.00143649655942       -1.38029895982088        0.00004993357912
C            1.21125911673482       -0.67154656823770        0.07910641141948
N            2.42488720329880       -1.35438948597114        0.15152604271002
C            3.38742131233595       -1.17759180802593        1.13029523376320
C            3.36731554976553       -0.35785812039192        2.24786388033038
C            4.46074546611049       -0.39599442315487        3.09307748992933
C            5.54406316074318       -1.23365178479406        2.84145067129033
C            5.55814300670137       -2.06689273382579        1.74013521605814
C            4.47235867181784       -2.04495688148326        0.87544098193147
C            4.15075260921363       -2.76315793788197       -0.32745850451231
C            4.82774826703083       -3.71264815865777       -1.08075347624958
C            4.23670996476786       -4.18238272689623       -2.23659312722501
C            2.99773860667011       -3.70356956166611       -2.65389559975365
C            2.30563597753695       -2.75800581653014       -1.92139761635414
C            2.87975927793195       -2.30994357357998       -0.74236000423453
C            1.20179504448351        0.71555012267545        0.09551188714330
C            0.00147144813273        1.41584066208044       -0.00004299104288
N            0.00291708689877        2.80820487315440       -0.00009240864752
C           -0.82753423327153        3.62057687266306        0.75556412364785
C           -1.77962231268444        3.27732368786457        1.70373150726137
C           -2.45082377979102        4.30191053540141        2.34488447307067
C           -2.17893833908650        5.63803708878479        2.06346757720133
C           -1.21066512215784        5.98566071166708        1.14255040493271
C           -0.52425212637958        4.97344492394537        0.48576405543304
C            0.53456749427008        4.97231535489325       -0.48609745805603
C            1.22307557052872        5.98306387202461       -1.14295049538995
C            2.19063403396530        5.63337482972044       -2.06383718247372
C            2.45975420151404        4.29666913706214       -2.34516242138046
C            1.78642708868337        3.27351690667825       -1.70394650728611
C            0.83504835896218        3.61880376656324       -0.75580548352899
C           -1.20030510697178        0.71804074773107       -0.09555883615535
C           -1.21265691546487       -0.66903263400948       -0.07905766564974
N           -2.42770439765252       -1.34935287500318       -0.15142949426229
C           -2.88456789741806       -2.30388715962992        0.74253036267009
C           -2.31139457134655       -2.75303046671981        1.92161884188529
C           -3.00546091898196       -3.69710252386757        2.65418271357180
C           -4.24540708325550       -4.17339733110034        2.23689339222614
C           -4.83545586938697       -3.70253666671159        1.08100630949954
C           -4.15648764545876       -2.75450917894507        0.32764425974733
C           -4.47658159961034       -2.03575573014946       -0.87532867289681
C           -5.56238622225788       -2.05553189796918       -1.74004963000294
C           -5.54657011152557       -1.22240529860404       -2.84142812654185
C           -4.46152901735200       -0.38699266898298       -3.09309315110244
C           -3.36803777685267       -0.35104562740341       -2.24786303971972
C           -3.38985467013840       -1.17064716810825       -1.13022953290596
H            2.52527548045019        0.28416919456935        2.46104789496653
H            4.47211839499789        0.23565904799716        3.96890587985580
H            6.37983169839154       -1.23400281443290        3.52498306418103
H            6.39163461549546       -2.72667443162077        1.55344986637863
H            5.79749902702030       -4.06832178909530       -0.76743046686668
H            4.74382451335748       -4.92444175455094       -2.83478529805547
H            2.56773397677112       -4.07601855765620       -3.57139063078257
H            1.35250691475202       -2.38523523604254       -2.26562447403977
H            2.13494581095913        1.24974798937530        0.18182878152227
H           -1.98660595406615        2.24701590978834        1.95066173414878
H           -3.19988553659624        4.05849399003583        3.08353228476274
H           -2.72724902725269        6.40916231498936        2.58327325218303
H           -0.98410922725644        7.02087674729092        0.93791016709109
H            0.99865575862968        7.01876029358289       -0.93838792482737
H            2.74052731308015        6.40332842432366       -2.58370777131271
H            3.20830620700603        4.05165285965893       -3.08379803899360
H            1.99128348996468        2.24276650185390       -1.95080299951187
H           -2.13234189630011        1.25417437509060       -0.18191337696368
H           -1.35750554586382       -2.38219737202017        2.26583283422064
H           -2.57624013379744       -4.07036631482836        3.57171360762665
H           -4.75406171379579       -4.91436015712421        2.83513687278896
H           -5.80593328900458       -4.05623392721266        0.76769562359206
H           -6.39725172830718       -2.71355993419216       -1.55331389574132
H           -6.38231910364111       -1.22109657321834       -3.52498316690142
H           -4.47156974448835        0.24459035838941       -3.96898863185120
H           -2.52466690174041        0.28921962105463       -2.46108618947670
