73
 energy: -117.104010859630 gnorm: 0.000154131269 xtb: 6.7.1 (edcfbbe)
N           -3.64206421293621       -0.79394497351848       -0.84016387844150
C           -2.56986935659356       -0.54970495119427       -0.51466400434002
C           -1.22932434641059       -0.25757613251273       -0.18316670557248
C           -0.77443937780201        1.07348833995211       -0.17286760226191
N           -1.66545160842482        2.12500702310269       -0.37584767125258
C           -1.51930440415962        3.13051503477111       -1.31759259211902
C           -0.52128015491356        3.31885852450933       -2.26095773371655
C           -0.63544720097524        4.40261022830992       -3.11182726212439
C           -1.71822133324874        5.27445257909955       -3.03676418886252
C           -2.72686366663521        5.07631211396803       -2.11460323273815
C           -2.63335489595951        3.99547021290139       -1.24858086241670
C           -3.48350072418917        3.49009711568838       -0.20563425605713
C           -4.68625627678564        3.92225352868273        0.33617638816333
C           -5.23489517182140        3.20711795834063        1.38197170339952
C           -4.58919460660832        2.08827602287481        1.90066579636761
C           -3.39032190484024        1.64214795391839        1.37844073593449
C           -2.85385596646338        2.33456371976519        0.30500751613491
C            0.57554033611280        1.33789840403071        0.00907325433321
C            1.48309964888463        0.29700843440319        0.19301811914642
N            2.83021388200888        0.58251794751381        0.40476340834870
C            3.90404526319483       -0.03361032502193       -0.21687004474486
C            3.91784590750872       -0.99857931857349       -1.21197347176783
C            5.14447770779368       -1.42298489050686       -1.68696165839199
C            6.33536261128685       -0.89397969672850       -1.19703521235075
C            6.32798786850634        0.08958416931869       -0.22792674281332
C            5.10680039897814        0.52876737035818        0.26488522984978
C            4.73626274171674        1.52525749249119        1.23167218129804
C            5.46944607585721        2.37833885874685        2.04521371059509
C            4.79003365407369        3.21502385880942        2.90807730429089
C            3.39975589286539        3.19239727806432        2.97814737843517
C            2.64928081317286        2.35120834851767        2.17788509279001
C            3.32490717958139        1.53089643641052        1.28677724804081
C            1.03325069998752       -1.02183724768560        0.20193968726784
C           -0.31309445259122       -1.30536259297894        0.02230483787915
N           -0.75758700011701       -2.62669947803620        0.04628169717983
C           -0.25632145688648       -3.66138643616793       -0.72439377615063
C            0.72712185654647       -3.63787462589764       -1.70007922789952
C            1.02293740557454       -4.82181688893480       -2.34896797715017
C            0.34888835800398       -6.00176526541791       -2.04643070725865
C           -0.65307081837846       -6.02393515521551       -1.09624723593383
C           -0.96499812686141       -4.84674348089727       -0.42995906480324
C           -1.93590699152289       -4.50615725131620        0.57345510561769
C           -2.88982347700882       -5.24063177484928        1.26459625360700
C           -3.66141941860267       -4.59691866072912        2.21126801927727
C           -3.47670952214709       -3.24486194974909        2.48657259824207
C           -2.53140435563868       -2.49557060625926        1.81292226162212
C           -1.77875674617654       -3.12830614926916        0.83699933154920
H            0.31389318142007        2.63925391553446       -2.34295492909255
H            0.13109516914768        4.57304803096952       -3.85311051925236
H           -1.77048724649900        6.11038820216689       -3.71804411555799
H           -3.57540085986177        5.74160258832588       -2.06764177807308
H           -5.17539899593960        4.80225041943892       -0.05288300244178
H           -6.17250990494880        3.52264459804312        1.81426125218028
H           -5.03166159023767        1.55823317990697        2.73060245325746
H           -2.89248065438397        0.78488594887460        1.80490461229461
H            0.92050399518668        2.35981009514642        0.00274846261677
H            3.00365829221551       -1.40110496217491       -1.61880767025117
H            5.17783263860153       -2.17833974962246       -2.45783639340070
H            7.27418429192201       -1.25258147936159       -1.59132896599480
H            7.24948936303132        0.51537247772273        0.13874123780672
H            6.54795882850209        2.37895866564109        2.00403283647906
H            5.34012730408682        3.88875835210897        3.54756796689542
H            2.89454385682350        3.84282680587881        3.67648259082787
H            1.57339061090167        2.32985660466326        2.26254719543323
H            1.72446668841517       -1.82832391587212        0.39101920250058
H            1.23616366096777       -2.72266595925341       -1.96129563514064
H            1.78891728560192       -4.82936577540526       -3.11015025451945
H            0.60865233230132       -6.90741180268743       -2.57364777710949
H           -1.18997650847226       -6.93409821060290       -0.87673724750093
H           -3.01834220226243       -6.29353310133767        1.06481832145393
H           -4.41303022897274       -5.14816542429156        2.75602885787499
H           -4.08228259559688       -2.77093674336127        3.24438516070777
H           -2.38531208523028       -1.45334221019177        2.05210142005747
