  128
       -198.63280163
 C         -7.1217325849        5.6672643675        1.9259155254
 C         -7.6657818797        4.3697951455        2.5402418276
 C         -9.1843639735        4.3502740160        2.3447275027
 C         -7.3727558532        4.3446135165        4.0470661759
 C         -6.9759767683        3.1860948145        1.8838098386
 C         -5.5904431760        3.0744358552        1.9318413470
 C         -4.9393136946        2.0257530706        1.3222376696
 C         -5.6448031853        1.0469032101        0.6211638920
 C         -7.0367333504        1.0964035803        0.6236221984
 C         -7.6650391092        2.1693228122        1.2435476316
 C         -7.8909444874        0.0023856893        0.0168554772
 C         -8.7793018830        0.6153022436       -1.0805211780
 C         -8.7584859962       -0.6110848725        1.1304360371
 C         -7.0487288202       -1.0917620947       -0.6058190466
 C         -7.6819179240       -2.1637639205       -1.2147023934
 C         -7.0038090084       -3.1828769994       -1.8707590425
 C         -7.7881729389       -4.3330053650       -2.4792511059
 C         -8.7771801091       -3.7817332474       -3.5161299223
 C         -6.8834033464       -5.3526993700       -3.1756903575
 C         -8.5540222494       -5.0542779519       -1.3609937083
 C         -5.6224402841       -3.0747740935       -1.9419463275
 C         -4.9636780666       -2.0218466869       -1.3406510572
 C         -5.6549574629       -1.0434300396       -0.6287339584
 N         -4.9642757536        0.0016668061       -0.0093544668
 C         -3.5758384233       -0.0005244668       -0.0174649085
 C         -2.8421974794        1.0344850037       -0.6157908875
 F         -3.5013155369        2.0281777418       -1.2279030116
 C         -1.4581375037        1.0386429629       -0.6087474883
 F         -0.7963263362        2.0312545268       -1.2178718292
 C         -0.7348510445       -0.0039724284       -0.0307903085
 C          0.7350214217       -0.0052927759       -0.0336678794
 C          1.4552190187       -1.0478922692       -0.6156510886
 F          0.7902073355       -2.0386723850       -1.2242290852
 C          2.8391761515       -1.0456564965       -0.6264367077
 F          3.4955674604       -2.0395613859       -1.2411656732
 C          3.5759311586       -0.0128771339       -0.0280130734
 N          4.9643619613       -0.0196690324       -0.0213956294
 C          5.6411434927       -1.0659494743        0.6115493275
 C          4.9347497706       -2.0409934720        1.3131510690
 C          5.5802388896       -3.0912345245        1.9332357197
 C          6.9626749992       -3.2003547725        1.8915823912
 C          7.7338212404       -4.3404259252        2.5348993366
 C          8.6640557362       -3.7709310312        3.6156021937
 C          8.5627537054       -5.0540351429        1.4574775591
 C          6.8117577551       -5.3719945225        3.1900144502
 C          7.6546569979       -2.1868821931        1.2414035121
 C          7.0350036968       -1.1174747623        0.6141147786
 C          7.8911154044       -0.0294192376       -0.0004752833
 C          8.7781477224        0.5734651324        1.1034399487
 C          8.7601639629       -0.6483243186       -1.1100061407
 C          7.0506499465        1.0723383124       -0.6124950681
 C          7.6923278227        2.1471008436       -1.2151842312
 C          7.0165849542        3.1715771347       -1.8576186878
 C          7.7197289057        4.3619889127       -2.4872328134
 C          7.4508354583        4.3603476807       -3.9986023061
 C          7.1686299967        5.6514603035       -1.8620429444
 C          9.2350079475        4.3360863517       -2.2678884816
 C          5.6317618986        3.0637067561       -1.9309110697
 C          4.9677872085        2.0115765781       -1.3415622292
 C          5.6586912263        1.0267846274       -0.6342607682
 C          2.8424229221        1.0247771266        0.5660198081
 F          3.5011042973        2.0145002803        1.1850391574
 C          1.4586059844        1.0342844530        0.5496010900
 F          0.7965466315        2.0281280048        1.1565392707
 C         -1.4554043753       -1.0452764909        0.5533058712
 F         -0.7902876021       -2.0390009999        1.1570156664
 C         -2.8391473768       -1.0378858259        0.5731553929
 F         -3.4949560597       -2.0298957083        1.1915070653
 H         -6.0530293620        5.7671329158        2.0923471818
 H         -7.6166951640        6.5288421055        2.3687079680
 H         -7.3009701496        5.6787426169        0.8528884465
 H         -9.6202956438        5.2327253823        2.8083371571
 H         -9.4419257565        4.3646069814        1.2880152739
 H         -9.6297227644        3.4746494014        2.8115535840
 H         -7.7374169923        3.4182633052        4.4864565852
 H         -7.8669786877        5.1790333320        4.5397818207
 H         -6.3063558379        4.4166099577        4.2423434333
 H         -4.9970244539        3.8082080413        2.4540735160
 H         -3.8658662173        1.9686673721        1.4078869270
 H         -8.7386746730        2.1994239725        1.2215361611
 H         -9.4230680394        1.3890820516       -0.6722682138
 H         -9.4084202602       -0.1410086269       -1.5408976751
 H         -8.1561671039        1.0598344345       -1.8540001565
 H         -8.1208241408       -1.0588162933        1.8903150781
 H         -9.4113064745       -1.3833583215        0.7333598182
 H         -9.3775529300        0.1452482894        1.6042832360
 H         -8.7566955123       -2.2037168363       -1.1772311971
 H         -9.3213715454       -4.5983298244       -3.9855650780
 H         -8.2443190680       -3.2322362158       -4.2894010566
 H         -9.5007950901       -3.1115672183       -3.0599783923
 H         -6.1733222226       -5.7868459718       -2.4756757025
 H         -6.3384277277       -4.8944111052       -3.9978755268
 H         -7.4897612411       -6.1591503526       -3.5828458671
 H         -9.2566648108       -4.3880053208       -0.8677990043
 H         -9.1107127181       -5.8952034523       -1.7686736516
 H         -7.8593755980       -5.4297538301       -0.6125518678
 H         -5.0312523399       -3.8042490576       -2.4692394725
 H         -3.8916604330       -1.9659199881       -1.4431692706
 H          3.8609950004       -1.9837581257        1.3944601581
 H          4.9778424762       -3.8170056218        2.4528225352
 H          9.2041256182       -4.5766278615        4.1079013430
 H          9.3918045559       -3.0840609587        3.1919524633
 H          8.0857224926       -3.2342823121        4.3649146402
 H          9.1034866035       -5.8911441907        1.8935585237
 H          9.2863386770       -4.3830929651        1.0025759496
 H          7.9113258251       -5.4340776129        0.6733219761
 H          7.4090336949       -6.1746712396        3.6175967256
 H          6.2299322421       -4.9235023841        3.9920654974
 H          6.1344752338       -5.8088062443        2.4596946421
 H          8.7299794266       -2.2284930113        1.2252637302
 H          9.4239502671        1.3495153777        0.7030331635
 H          8.1540005623        1.0124575467        1.8793666458
 H          9.4060824806       -0.1868054045        1.5586911259
 H          9.3895954799       -1.4400858138       -0.7137946647
 H          9.4020242725        0.1002685651       -1.5655827221
 H          8.1234183973       -1.0721558263       -1.8841643845
 H          8.7657803353        2.1726993871       -1.1773529430
 H          6.3875227517        4.4341177141       -4.2101709796
 H          7.8240742456        3.4415774777       -4.4467622336
 H          7.9515833758        5.2032952610       -4.4699508601
 H          7.3277026286        5.6451550730       -0.7856807987
 H          7.6744001960        6.5183596887       -2.2814774605
 H          6.1034300602        5.7574878484       -2.0468713514
 H          9.4757673174        4.3370697147       -1.2070724303
 H          9.6858375405        3.4648836016       -2.7380740294
 H          9.6804489102        5.2228821090       -2.7137145886
 H          5.0492511689        3.8032627286       -2.4571885455
 H          3.8960295255        1.9568851282       -1.4469793000
