  68
  -108.153507089200       0.645729554244875      !
 C          5.1075841831        5.1031523014       -0.1462509605
 O          3.7372110581        5.0909317678       -0.4622379375
 C          3.0003403705        3.9976345690       -0.1386972000
 C          1.6339880967        4.0889217576       -0.4915344316
 C          0.7528170372        3.0612789369       -0.2167256242
 C          1.2408866228        1.9251483781        0.4116326235
 C          2.6279003524        1.8073272997        0.7442609997
 C          3.5037706305        2.8607294741        0.4745238524
 C          2.8104929948        0.5154014447        1.3049980195
 C          3.9137169821       -0.1833018076        1.7996300769
 C          3.7155918956       -1.4415142274        2.3363283561
 C          2.4444914747       -2.0003864241        2.4259145799
 C          1.3298360451       -1.3244942789        1.9323526861
 C          1.5334829373       -0.1063173547        1.3205997364
 N          0.5995495590        0.7525445152        0.7390950352
 C         -0.6667814142        0.3705432213        0.3261004465
 C         -1.7756711431        1.1751315680        0.5667067887
 C         -3.0494855909        0.7562983285        0.2330015335
 C         -3.2554529218       -0.5144175434       -0.3771530491
 C         -2.1541872534       -1.2995806652       -0.6446000721
 C         -0.8586912932       -0.8910463672       -0.3433185857
 N          0.2378822279       -1.6504743941       -0.7276779722
 C          1.4087219729       -1.1351682363       -1.2696110252
 C          1.6234071775        0.0898596246       -1.8768017492
 C          2.9024087122        0.3710665743       -2.3326616990
 C          3.9289481981       -0.5634082051       -2.2184153990
 C          3.6992989675       -1.8178751423       -1.6870703374
 C          2.4238587302       -2.1226019366       -1.2235667038
 C          1.8287038096       -3.2923639012       -0.6583016458
 C          2.3119435264       -4.5609690116       -0.3521618230
 C          1.4613770972       -5.4688896204        0.2449927004
 C          0.1426864027       -5.1304975258        0.5514673893
 C         -0.3649158229       -3.8781672333        0.2478595474
 C          0.4756933675       -2.9665569536       -0.3701447024
 C         -4.6366867535       -0.9620347846       -0.7475366486
 C         -5.6958170115        0.0245575488       -0.3473706542
 C         -7.0362982946       -0.2418273293       -0.5821802461
 C         -8.0224584059        0.6578437286       -0.2200958777
 C         -7.6712433603        1.8551892122        0.3917986984
 C         -6.3465284300        2.1423291951        0.6348917984
 C         -5.3533820031        1.2323793263        0.2670908099
 O         -4.0705027074        1.5984296566        0.5371110327
 H          5.4816242589        6.0681273442       -0.4852070997
 H          5.2709131017        5.0089582566        0.9321121311
 H          5.6452027299        4.3031477146       -0.6652918929
 H          1.3023994024        4.9876242489       -0.9837429480
 H         -0.2838391861        3.1460155888       -0.5025124877
 H          4.5451783894        2.7599968721        0.7315933678
 H          4.8993091966        0.2545110926        1.7604530593
 H          4.5609982204       -1.9986540643        2.7127297316
 H          2.3129968815       -2.9691345556        2.8818278929
 H          0.3418079013       -1.7487719250        2.0311044501
 H         -1.6585870332        2.1190478235        1.0751116582
 H         -2.2943786122       -2.2415120390       -1.1551631846
 H          0.8239506259        0.8053130932       -1.9994375709
 H          3.0991813317        1.3301462804       -2.7870421735
 H          4.9162445120       -0.3058375151       -2.5727126740
 H          4.4895503446       -2.5508940090       -1.6316095268
 H          3.3368952568       -4.8192693984       -0.5700028312
 H          1.8203147204       -6.4573535322        0.4918701348
 H         -0.4922762590       -5.8558354818        1.0373683699
 H         -1.3817693660       -3.6217983577        0.5041116695
 H         -4.8476238697       -1.9310630106       -0.2781607278
 H         -4.6906806852       -1.1294154402       -1.8310684057
 H         -7.3050244682       -1.1743370931       -1.0581387401
 H         -9.0593994234        0.4296052956       -0.4121196926
 H         -8.4351563708        2.5621210478        0.6772684958
 H         -6.0461927152        3.0641876831        1.1075688207
  68
  -108.152939783300       0.354270445755125      !
 C          6.4107696402        1.8020002648       -0.1364464904
 O          5.2182461615        1.9874451442       -0.8579083800
 C          4.0399408898        1.6571934824       -0.2705938772
 C          2.9023249431        1.8711921609       -1.0823071457
 C          1.6403924537        1.5333819650       -0.6427210389
 C          1.5153989226        0.9564980577        0.6136829602
 C          2.6382346222        0.8469569845        1.4868945475
 C          3.9125749464        1.1729281933        1.0234959768
 C          2.1409539645        0.3640879659        2.7290166050
 C          2.7401120484        0.0516637260        3.9496499035
 C          1.9532525091       -0.4590148101        4.9656818258
 C          0.5909412920       -0.6752457361        4.7864016575
 C         -0.0323905911       -0.3608584848        3.5794495849
 C          0.7400136870        0.1723741721        2.5696241325
 N          0.3845364919        0.5153782906        1.2643957171
 C         -0.8140015593        0.1960579451        0.6483184418
 C         -2.0224569742        0.5701614476        1.2299727314
 C         -3.2295127879        0.3342699615        0.6029547082
 C         -3.2676402986       -0.3312775142       -0.6571087014
 C         -2.0757368984       -0.7189986822       -1.2274792124
 C         -0.8421338666       -0.4962543352       -0.6189816514
 N          0.3200402680       -0.9679018650       -1.2105336496
 C          0.7393977620       -0.6669826377       -2.5019652580
 C          0.0571701080       -0.0355450309       -3.5266446655
 C          0.7318129421        0.1931557447       -4.7172729512
 C          2.0596408665       -0.1945133707       -4.8797107915
 C          2.7571461745       -0.7985540640       -3.8517840617
 C          2.1030228185       -1.0324074352       -2.6466594407
 C          2.5205737334       -1.5789655324       -1.3942019143
 C          3.7262046564       -2.0792407488       -0.9159348585
 C          3.7751351151       -2.5715475494        0.3734100628
 C          2.6325618704       -2.6171629522        1.1730345068
 C          1.4225259978       -2.1223603536        0.7188196412
 C          1.3879966269       -1.5427765935       -0.5394550475
 C         -4.5830570890       -0.6390726607       -1.3039170883
 C         -5.7322413288        0.0551767213       -0.6310903904
 C         -6.9994990056        0.0422379803       -1.1933401653
 C         -8.0695812355        0.6555135348       -0.5671146796
 C         -7.8800189199        1.2951126099        0.6520039375
 C         -6.6296162553        1.3245020526        1.2284570077
 C         -5.5502853065        0.7094250025        0.5910995803
 O         -4.3480517277        0.7898708392        1.2242530563
 H          7.2136437579        2.1013416227       -0.8085963614
 H          6.4386284398        2.4283045966        0.7610204220
 H          6.5460645172        0.7537813395        0.1485755257
 H          3.0523344270        2.3039444210       -2.0568096415
 H          0.7779350242        1.7172181224       -1.2648608359
 H          4.7626005536        1.0406292564        1.6722522944
 H          3.8005302459        0.1963233220        4.0883548903
 H          2.4043993602       -0.7060477010        5.9157986673
 H          0.0046529852       -1.0943863824        5.5893856730
 H         -1.0871221916       -0.5475310762        3.4484955633
 H         -2.0227047903        1.1158075996        2.1602633590
 H         -2.0970172778       -1.2657820292       -2.1591831513
 H         -0.9650783366        0.2901456728       -3.4086292641
 H          0.2174797573        0.6844518379       -5.5293636985
 H          2.5515703417       -0.0061165693       -5.8226782762
 H          3.7932921543       -1.0757177140       -3.9710623066
 H          4.6026979893       -2.0832859015       -1.5462679706
 H          4.7064014425       -2.9519332490        0.7671713004
 H          2.6885871895       -3.0485565115        2.1606047711
 H          0.5368935380       -2.1860890324        1.3331751770
 H         -4.7579768381       -1.7235044658       -1.2720591977
 H         -4.5524750528       -0.3649072630       -2.3642790676
 H         -7.1434283774       -0.4601837421       -2.1394790819
 H         -9.0468327139        0.6358818941       -1.0240222397
 H         -8.7111049514        1.7728791754        1.1479898699
 H         -6.4543198560        1.8176248140        2.1716274384
