  54
        -89.39207808
 N         -5.9298587968        1.8159922014        0.8644940425
 C         -4.9511287795        1.2753050154        0.6117351702
 C         -3.7328816731        0.6304198446        0.3033675593
 C         -2.5249841345        1.2451992437        0.6123197237
 C         -1.3136614604        0.6271988314        0.3260080057
 N         -0.1222975551        1.2478879325        0.6840081577
 C          0.9526127759        0.6235767528        1.2983185048
 C          0.9933694313       -0.5902837593        1.9648680380
 C          2.2043471749       -0.9893253898        2.4987583160
 C          3.3372209400       -0.1871030434        2.4013622767
 C          3.2812877392        1.0552277302        1.7994587911
 C          2.0774362496        1.4728540154        1.2508351673
 C          1.6532509355        2.6778341562        0.5901597461
 C          2.3061014886        3.8513088875        0.2410578316
 C          1.5961579149        4.8304541251       -0.4263778208
 C          0.2570771732        4.6447022378       -0.7562195327
 C         -0.4133068487        3.4820604766       -0.4213339096
 C          0.2902324005        2.5058838337        0.2655098299
 C         -1.3123495036       -0.6323079027       -0.3236546442
 N         -0.1195284105       -1.2496705916       -0.6826888768
 C          0.9523391628       -0.6218149261       -1.2986662103
 C          0.9877775076        0.5920095293       -1.9655863593
 C          2.1965313087        0.9951737104       -2.5013917665
 C          3.3324067336        0.1970113841       -2.4052782508
 C          3.2818244902       -1.0452569079       -1.8027571900
 C          2.0802582746       -1.4670215713       -1.2522793892
 C          1.6611564495       -2.6732943290       -0.5907189869
 C          2.3186242698       -3.8442452207       -0.2418454035
 C          1.6130634450       -4.8255094199        0.4271273967
 C          0.2737170206       -4.6444447336        0.7585034495
 C         -0.4012717918       -3.4843925952        0.4238561285
 C          0.2979787655       -2.5059924166       -0.2642197537
 C         -2.5223162554       -1.2529654850       -0.6098734400
 C         -3.7315443314       -0.6403776531       -0.3017143918
 C         -4.9484716745       -1.2871072706       -0.6114213416
 N         -5.9261291137       -1.8292504444       -0.8654333914
 H         -2.5276797859        2.1993168018        1.1173398401
 H          0.1131245068       -1.2053639783        2.0745994884
 H          2.2671188984       -1.9413119076        3.0038011427
 H          4.2672375849       -0.5358709661        2.8237646768
 H          4.1512416494        1.6923170087        1.7582026485
 H          3.3484746809        3.9884397884        0.4839604632
 H          2.0844668764        5.7519064750       -0.7048240592
 H         -0.2714753722        5.4217338374       -1.2876907371
 H         -1.4477656656        3.3455061552       -0.7009224114
 H          0.1052533426        1.2040704524       -2.0738117223
 H          2.2551471599        1.9471560085       -3.0069572196
 H          4.2603189004        0.5485884635       -2.8299079710
 H          4.1538969359       -1.6794819369       -1.7632348312
 H          3.3612941335       -3.9775625477       -0.4855267140
 H          2.1052132058       -5.7447617080        0.7060291653
 H         -0.2512786184       -5.4230318720        1.2911984771
 H         -1.4359556070       -3.3514450938        0.7043571376
 H         -2.5229370760       -2.2072774387       -1.1145553280
