  38
  -65.6508004600000        1.00000000000000      !
 O         -1.2954832212        2.8472030212       -0.0311139035
 C         -2.3054037136        1.9782173217       -0.0233135028
 C         -3.6101598946        2.4768937793       -0.0262812580
 C         -4.6976545432        1.6313597893       -0.0138580536
 C         -4.4866680409        0.2604918346        0.0010437405
 Br        -5.9820084887       -0.9235731522        0.0237268307
 C         -3.2132524709       -0.2670474225        0.0007459187
 C         -2.1037802381        0.5791319535       -0.0125082856
 C         -0.7538336239        0.0595225210       -0.0151595148
 N          0.3196248113        0.8239582013       -0.0037479763
 C          1.3951308366       -0.0145116962       -0.0099775979
 C          0.9434870941       -1.3440249697       -0.0278477520
 C          1.8338677751       -2.4143921139       -0.0400496838
 C          3.1732276887       -2.1210102697       -0.0301861745
 C          3.6751993429       -0.7977788542       -0.0090378499
 C          5.0879813897       -0.5094803155        0.0032002195
 C          6.0778606661       -1.5075348981        0.0002606121
 C          7.4136014270       -1.1936512590        0.0111305377
 C          7.8286271875        0.1392110216        0.0257025991
 C          6.8906445967        1.1371369372        0.0304311791
 C          5.5165252910        0.8415748599        0.0198860973
 C          4.5604002720        1.8935930818        0.0268723020
 C          3.2328681000        1.6282659192        0.0179777692
 C          2.7712035181        0.2887269756       -0.0000897029
 N         -0.4236143275       -1.2683260619       -0.0306647257
 H         -0.4413200583        2.3378447246       -0.0221953106
 H         -3.7430707953        3.5466873248       -0.0370002010
 H         -5.7009253671        2.0277013412       -0.0148342382
 H         -3.0885588430       -1.3391142234        0.0132922463
 H          1.4820095190       -3.4348751154       -0.0565596179
 H          3.8663145227       -2.9461095084       -0.0395205716
 H          5.7971226987       -2.5487613028       -0.0106265759
 H          8.1512522179       -1.9828856929        0.0085270520
 H          8.8824299478        0.3752027033        0.0338909212
 H          7.1946279816        2.1742910896        0.0431719899
 H          4.9215065039        2.9119291657        0.0398261558
 H          2.4954081560        2.4160737228        0.0240715131
 H         -1.0577127192       -2.0482829470       -0.0441316800
