  76
       -116.17957471
 N         10.5010732440       -0.8489322893        0.8847879305
 C          9.3830749312       -0.6726987564        0.7002931035
 C          8.0055037697       -0.4551058217        0.4730518298
 C          7.4599922464       -0.6942163440       -0.7892417715
 C          6.1137735832       -0.4826547815       -1.0042874419
 C          5.2919757379       -0.0273491675        0.0253760249
 C          3.8527717741        0.2012686514       -0.2143591405
 C          3.3421833161        1.5068907554       -0.1905480552
 C          4.1770396215        2.6345387089        0.0279879075
 C          3.6629491408        3.8929837782        0.0861446370
 C          2.2774944893        4.1016377631       -0.0620572918
 C          1.4475922862        3.0507320611       -0.3035525829
 C          1.9461080887        1.7253824675       -0.4071795984
 C          1.1047045612        0.6393817744       -0.6912684329
 C         -0.3298627339        0.8577898577       -0.9542907058
 C         -0.7449095502        1.6064934646       -2.0547687308
 C         -2.0883464134        1.7759479624       -2.3411280182
 C         -3.0279157461        1.1750665823       -1.5188868179
 C         -2.6153632671        0.4274210126       -0.4070569497
 C         -1.2801128876        0.2727050009       -0.1163089629
 C         -3.8050335189       -0.1975552519        0.2941837306
 C         -3.6134742786       -1.6985737855        0.1785512724
 C         -4.1222587617       -2.4029867493       -0.9044171928
 C         -3.8608023330       -3.7544603223       -1.0481439727
 C         -3.0777840143       -4.4165679640       -0.1190405391
 C         -2.5603220083       -3.7190547619        0.9591394143
 C         -2.8253620302       -2.3700851832        1.1067810400
 C         -3.9973539124        0.2645164505        1.7224277021
 C         -4.7792028403       -0.4808841524        2.5974438379
 C         -5.0115391144       -0.0343390042        3.8853447558
 C         -4.4697652668        1.1651460287        4.3150692895
 C         -3.6973124190        1.9161154986        3.4467293548
 C         -3.4659626675        1.4713762937        2.1569608956
 C         -4.9546408421        0.3350276064       -0.5390917291
 C         -6.3073116570        0.1340329266       -0.3684022970
 C         -7.1875324703        0.7359801327       -1.2577807446
 C         -6.7195116412        1.5269720574       -2.2959426380
 C         -5.3613217080        1.7374704949       -2.4697128224
 C         -4.4788552418        1.1393872384       -1.5853758609
 C          1.6194068279       -0.6670770238       -0.7268854730
 C          0.8058354084       -1.7897079100       -1.0358480855
 C          1.3091616615       -3.0538839598       -1.0218715727
 C          2.6628554250       -3.2767311223       -0.7025487049
 C          3.4862103818       -2.2259798625       -0.4388396256
 C          3.0068338037       -0.8895544151       -0.4624300631
 C          5.8458503554        0.2105907437        1.2821292058
 C          7.1897064102       -0.0018621917        1.5108178651
 H          8.0967913107       -1.0442831178       -1.5882134906
 H          5.6866052685       -0.6630058501       -1.9800769605
 H          5.2389935889        2.4778961247        0.1469454094
 H          4.3117215926        4.7400860564        0.2534831495
 H          1.8819453411        5.1036989272        0.0148608237
 H          0.3859950959        3.2121672242       -0.4156144976
 H          0.0028078652        2.0423710893       -2.7019951804
 H         -2.3949275634        2.3536298832       -3.2003607133
 H         -0.9574217646       -0.2946697289        0.7441124859
 H         -4.7261775948       -1.8933925007       -1.6410803183
 H         -4.2678809393       -4.2898484995       -1.8935355623
 H         -2.8712102836       -5.4704343249       -0.2343343480
 H         -1.9453788617       -4.2263530107        1.6882853322
 H         -2.4239732576       -1.8360359418        1.9559593527
 H         -5.1996389866       -1.4214397072        2.2711489363
 H         -5.6189536003       -0.6249096954        4.5557636912
 H         -4.6508155643        1.5131687403        5.3212837895
 H         -3.2733418313        2.8548160269        3.7725043617
 H         -2.8661307078        2.0667804791        1.4839055271
 H         -6.6790647361       -0.4800842781        0.4382495772
 H         -8.2504728852        0.5857475986       -1.1387385052
 H         -7.4230841778        1.9850353048       -2.9757521546
 H         -4.9986023599        2.3559426903       -3.2772610117
 H         -0.2322327650       -1.6294494362       -1.2849289321
 H          0.6711897974       -3.8941178083       -1.2527634802
 H          3.0429316284       -4.2874420473       -0.6768561732
 H          4.5253070822       -2.3990706971       -0.2003158650
 H          5.2091602275        0.5588132796        2.0821724110
 H          7.6175562623        0.1792482732        2.4858966665
