130
 energy: -172.091755505281 gnorm: 0.000072802098 xtb: 6.7.1 (edcfbbe)
C            5.44901163725097       -2.30886953169502        4.30776104568554
C            4.27637069306485       -1.70866550638092        3.58997735257964
C            3.37349805863301       -0.92454246219732        4.28881871609469
C            2.25974271695617       -0.37296429331265        3.67382263956171
C            1.29421578789458        0.44767230394935        4.47871013730122
C            2.06126513511213       -0.60284428289072        2.31480398338218
C            0.79622925247816       -0.09206098242499        1.66284223373267
C            0.90274078349405        1.31256577460172        1.32295208566140
C            1.01356029167009        2.47883380204902        1.04766309013313
C            1.12628042294347        3.84191575198076        0.69187076249575
C            0.35278113577374        4.37314205152033       -0.33983388059031
C            0.45950085786769        5.69903480740616       -0.69697878010773
C            1.35029666101169        6.56416717293726       -0.04138032600008
N            1.48815226266376        7.87794662937964       -0.42656675251584
C            2.28510526453594        8.77973161885598        0.37104894849540
C            0.53773552839613        8.45682165342175       -1.34702929343941
C            2.11593628823103        6.02173056051310        1.00226356578025
C            2.00643634146956        4.69447608214041        1.35659074890591
C            2.98533472209538       -1.34606724124504        1.56124388920503
B            2.79950705757327       -1.45771144451041       -0.00715152893884
C            2.78177300687591       -2.85201085933577       -0.75548159941298
C            3.54154669532754       -3.04399722326916       -1.92658442683374
C            4.52473145029746       -2.01307981884301       -2.40291623054505
C            3.43352139783211       -4.22588174688591       -2.66014113288036
C            4.22546379691560       -4.43537255180279       -3.91711503459397
C            2.57393275373225       -5.22011126045379       -2.22214109837825
C            1.84335158551734       -5.08516988544230       -1.05326352332622
C            0.94344275930020       -6.20356678198889       -0.61328510716189
C            1.96325562096623       -3.90940181805380       -0.31124775704655
C            1.15083944878576       -3.79400915393098        0.95901156384875
C           -0.24178762155453       -3.49521829868798        0.67895061295639
C           -1.39446895746388       -3.24855122174251        0.43320868604134
C           -2.76099867006025       -2.97910136276753        0.19082653121924
C           -3.57875380553704       -2.47109497249779        1.19961578647351
C           -4.91484993507523       -2.22595074541488        0.97716905205606
C           -5.50307087860128       -2.47137680144779       -0.27272416069840
N           -6.82934813025528       -2.20057505321665       -0.50440402914202
C           -7.44488421276870       -2.61951400938116       -1.74034269721259
C           -7.69107774843562       -1.84062382431816        0.59654204909665
C           -4.67222312199305       -2.98567594741121       -1.28029598429243
C           -3.33604686055334       -3.23008022379629       -1.05378590639425
C            2.65952113795700       -0.11565648415603       -0.83649111003540
C            3.57999494005821        0.93495633764893       -0.65791022673826
C            4.75326892333696        0.80876278722052        0.27271660128493
C            3.45183001077897        2.12591977519858       -1.37161762076106
C            4.40455696442759        3.26636306120674       -1.16563620029919
C            2.42998097935539        2.25473046928183       -2.29601731292039
C            1.52056665823864        1.23598292307620       -2.51768383792196
C            0.45685938859522        1.41797594246233       -3.56121904673408
C            1.62630746304082        0.05998171138552       -1.77349509700540
C            0.55875943481570       -0.99313697496940       -1.97873530763459
C           -0.72476728692477       -0.52484658038482       -1.48969535435209
C           -1.77699441347194       -0.11061605900528       -1.07680937874852
C           -3.02391485359506        0.36446673693560       -0.61208197992109
C           -3.16215968778781        0.87612983753307        0.67648956190460
C           -4.38071977785274        1.32850102993263        1.13307155787539
C           -5.52443712080095        1.29203236766008        0.32236683876209
N           -6.76369598499603        1.68104148683657        0.79624658088951
C           -7.81341720530241        1.97895257348039       -0.15407841119535
C           -6.85216078346396        2.34995432033422        2.07441796338542
C           -5.36765630184740        0.79988892678920       -0.98139802787634
C           -4.14993415815899        0.34318112096826       -1.43354079996138
C            4.08507257151155       -1.92026529294062        2.22254494681049
C            5.09816704970164       -2.75163209837855        1.48737063554158
H            5.43501474380766       -3.39589239675816        4.23057455242457
H            5.43079296592809       -2.03825461428116        5.36098408038581
H            6.38711619835986       -1.95809072734026        3.87770914108827
H            3.53405767822160       -0.74713856862249        5.34418692584006
H            0.35344038488667       -0.08841944915964        4.61632132241233
H            1.70672508057984        0.66381718147961        5.46191619669659
H            1.07444401612717        1.38810653139643        3.97484039428519
H            0.57236302850317       -0.65720754588929        0.75645071089525
H           -0.04944615572835       -0.22899895824841        2.34499320477472
H           -0.33977649627012        3.72752946815080       -0.86184436698538
H           -0.16223497649345        6.05974384757629       -1.50041290297479
H            3.31800139801847        8.42824937746165        0.42137060326137
H            1.89877242939437        8.88211247660120        1.39276118776634
H            2.29058617380449        9.76255647355801       -0.09431737991373
H           -0.49086814431909        8.39447260836205       -0.97153108253342
H            0.78206781717444        9.50424793073713       -1.50642476018063
H            0.58706135240483        7.95031989915202       -2.31395669484749
H            2.80849689709291        6.63859403550247        1.55161345929962
H            2.60982082832349        4.30667169561387        2.16681985449815
H            4.65962872808433       -1.22036655721676       -1.67823505033061
H            4.18394947734214       -1.56574136622281       -3.33718610585680
H            5.49227688391455       -2.47728034173091       -2.59282088202778
H            5.29260473760515       -4.48396971845894       -3.69815906702886
H            4.06704688335877       -3.61577168089123       -4.61678775894837
H            3.93405188307616       -5.36540741725233       -4.40008250553047
H            2.47824053405230       -6.12891228267702       -2.80158847087360
H           -0.06257676116548       -5.83513879632821       -0.41565257890841
H            1.31859907671266       -6.66672966698780        0.30057806104160
H            0.88924692905279       -6.97071408203020       -1.38263039552498
H            1.20100763736034       -4.73725788834205        1.51245254243009
H            1.55441875935490       -3.00995451381317        1.59891603451462
H           -3.15437597017870       -2.27151893729871        2.17430732258782
H           -5.50169376751562       -1.83139691612380        1.79008898469979
H           -6.95670554066468       -2.13841780727798       -2.59131435437522
H           -8.49113608369272       -2.32270854384480       -1.74203423195947
H           -7.39510462271464       -3.70649669126383       -1.87915331421000
H           -8.70076560091679       -1.67908066036611        0.22661182438461
H           -7.72689253543709       -2.62468110008116        1.36262307692957
H           -7.34527219334869       -0.91320693715056        1.05730305796439
H           -5.06793740475487       -3.19921082901882       -2.26009769531039
H           -2.71989572058118       -3.62242677710466       -1.85166523121661
H            5.66003715249512        1.17561286556574       -0.20677390476856
H            4.58459761011636        1.40870815856778        1.16770533693777
H            4.91808226974455       -0.21588489315190        0.57799682208746
H            4.08485028140512        4.13401111597844       -1.73808394240530
H            5.41246239552458        2.99816337317372       -1.48489727236774
H            4.44657346487396        3.54442066761716       -0.11390714288019
H            2.33890117384580        3.17543705036272       -2.85706755468484
H           -0.53500643469736        1.29320292570016       -3.12928388657625
H            0.52543675659062        2.41059736737363       -4.00112197558748
H            0.56865799460400        0.68210042590328       -4.35894186120039
H            0.46498049678192       -1.22730592965821       -3.04481400953852
H            0.80977111800996       -1.91482866209783       -1.45437124277580
H           -2.29446967674772        0.92582970052853        1.31924709148263
H           -4.42946413337138        1.71998875938917        2.13639540264329
H           -7.52624281557989        2.77174374701620       -0.85572684782884
H           -8.07142872233562        1.08503022497804       -0.72227219109077
H           -8.70209003509709        2.29991313622174        0.38467494814464
H           -7.89944716313761        2.52616036935205        2.31159778623650
H           -6.43595103130995        1.71529512091312        2.85793458928132
H           -6.32531485601030        3.31280588723383        2.08568980598376
H           -6.20567997673869        0.76323532967312       -1.65724359552142
H           -4.06000855050102       -0.03792672813432       -2.44161126063060
H            6.08987450531418       -2.30398485174874        1.56389196177958
H            5.15540140673917       -3.74760711225805        1.92705619252099
H            4.84373284536243       -2.85551077932842        0.43899833197440
