130
 energy: -171.995741162146 gnorm: 0.000094764218 xtb: 6.7.1 (edcfbbe)
C            5.40030167262103       -2.48378075594787        4.33543361006364
C            4.25286112102341       -1.82130473176931        3.62798125964070
C            3.44099819682626       -0.93226163772259        4.33316627864203
C            2.34485734835706       -0.32447727034532        3.73542977498477
C            1.46003950460642        0.57671111354237        4.55091741518796
C            2.06881603158983       -0.60219995605267        2.40314241231790
C            0.77687608406788       -0.10183935298887        1.79417011038045
C            0.89240597016153        1.27145608384411        1.36017178144093
C            0.99837528354654        2.43094347871594        1.04339384394137
C            1.10139061969385        3.77390355822428        0.63532706074943
C            0.44256067081621        4.22132294241541       -0.51508247830745
C            0.54893654483626        5.52818734932760       -0.92735034731020
C            1.32157816462825        6.45942214608583       -0.20951113269951
N            1.43544824528168        7.75711129691245       -0.62135252911969
C            2.42800603748674        8.63753056354192       -0.05555837060467
C            0.57450085614422        8.29512301771881       -1.64563953753845
C            1.97078575084459        6.00344944558133        0.95269411378557
C            1.85970415518982        4.69576152207977        1.36296247660636
C            2.93690745962686       -1.40843889279274        1.62033555153876
B            2.75232216144387       -1.42642508508759        0.06038169140058
C            2.72882509049648       -2.78937232596421       -0.72426002428537
C            3.39766811555529       -2.91545195811515       -1.97104525481975
C            4.30597997603162       -1.82797642580596       -2.47057650733824
C            3.25329604755195       -4.06292683835725       -2.74308774261268
C            3.92131189389445       -4.19016260554884       -4.08410436935606
C            2.49095178819750       -5.12158191501499       -2.26617779785064
C            1.86796410471168       -5.05870456914639       -1.02422415601515
C            1.05045483608635       -6.22861057465691       -0.55215779963776
C            1.99680346040568       -3.90814856447803       -0.25627440916798
C            1.23845078494320       -3.83977868607695        1.05139110018334
C           -0.16055865862067       -3.57078694903635        0.81183413826777
C           -1.30935051685072       -3.30407865201619        0.55544053557167
C           -2.66184652333844       -3.01255639354787        0.29029631053304
C           -3.53080478645318       -2.62834308676360        1.31541452197725
C           -4.85040593606272       -2.34367600870387        1.05704557639070
C           -5.37446788635406       -2.43326044913843       -0.24493684266162
N           -6.68586805803158       -2.15281279225626       -0.50226660289860
C           -7.20152349167990       -2.22542343625173       -1.84642105398413
C           -7.60029547715130       -1.87225592435406        0.57725231766134
C           -4.49287656479482       -2.82517626551297       -1.26909865909101
C           -3.17276680992227       -3.10346313950407       -1.00746783930917
C            2.61143902445557       -0.07274203929988       -0.71290507327344
C            3.51119644913765        1.00253972409835       -0.46306632548290
C            4.60865042044563        0.84241006350375        0.54975869248489
C            3.41201235978377        2.19889287800020       -1.15972586531089
C            4.33112672989573        3.35704145140254       -0.88607408388238
C            2.45423575907455        2.33056685990426       -2.15752112328116
C            1.55979505934811        1.30389506062136       -2.44291229284037
C            0.54586469098440        1.50306384579075       -3.53425054955430
C            1.62883284637105        0.12441303921686       -1.71492028069307
C            0.57560613183911       -0.93324686104791       -1.97797858476188
C           -0.72169505240062       -0.48312119126911       -1.52116256843895
C           -1.78791016944865       -0.09647833324563       -1.11215302530335
C           -3.04099932263853        0.35286911879267       -0.64551079064348
C           -3.21784887584037        0.71471643001720        0.69069456882854
C           -4.44005016932990        1.14572606796441        1.15305489601347
C           -5.55281254569772        1.23799159639850        0.30114849325707
N           -6.79100112590106        1.61343469943722        0.77178343803912
C           -7.83823043804008        1.94689416335675       -0.16702902695710
C           -6.91982154839966        2.13948757549845        2.11120007685942
C           -5.35929416876141        0.89242847258464       -1.04606845749158
C           -4.13694758485993        0.45626126109147       -1.50399516558096
C            4.00153274023516       -2.06865023725198        2.28509716196440
C            4.91755692852291       -2.99975706738390        1.54397009271924
H            5.33493445460835       -3.56841615489016        4.25056617859026
H            5.40289257967769       -2.21845300291515        5.39065952622381
H            6.35305064422148       -2.17481777467501        3.90286147143936
H            3.65193501980059       -0.73808290695119        5.37657412048844
H            0.51609646480524        0.08071223057914        4.78553169727071
H            1.94622681129101        0.83575925746413        5.48951571673332
H            1.23361769922387        1.49296660219403        4.00752483783627
H            0.50762552271349       -0.71933765026013        0.93288550108072
H           -0.03047457300477       -0.17571678927680        2.53143739545307
H           -0.14680870209818        3.51786709879771       -1.08418803001961
H            0.04458663921207        5.82435384269682       -1.83314675318390
H            3.37254206563119        8.10985595756941        0.08463148966911
H            2.10624345607581        9.04528552100217        0.90959145084425
H            2.60398308070688        9.46582132182835       -0.73906506006285
H           -0.44972960998974        7.94657497315478       -1.50582687770826
H            0.57339818206028        9.38120324688331       -1.57844850154156
H            0.90892028731825        8.00934081648359       -2.64966466425954
H            2.55635059546124        6.68327973670581        1.55033790260575
H            2.36653538999962        4.36991615535795        2.26096893126330
H            4.60240807131228       -1.17080293819314       -1.65948677576129
H            3.80769321317408       -1.21767340606229       -3.22592774359718
H            5.20313471822494       -2.25141667952446       -2.92102840087832
H            5.00515713259953       -4.25468944833792       -3.97473963476824
H            3.69945682939395       -3.32871213327272       -4.71304284008050
H            3.57934044062954       -5.08917565245995       -4.59330311144255
H            2.38717179113276       -6.01589619725317       -2.86662048199144
H            0.03487470031512       -5.91782332432653       -0.30605143538351
H            1.49134262176016       -6.67777585764851        0.33952860694219
H            1.00141584358753       -6.99202217972884       -1.32614359577491
H            1.34085242271262       -4.77269665338126        1.61353038543121
H            1.64739438503315       -3.03236461264337        1.66507777176243
H           -3.15153962966638       -2.55053676150746        2.32482656356061
H           -5.47810543138337       -2.03934642491236        1.87778374685124
H           -6.61281136259203       -1.59692999841366       -2.51839750503880
H           -8.22957982315811       -1.87221693158899       -1.86152405080592
H           -7.18653719979312       -3.25223085357278       -2.22811225891931
H           -8.60791119633007       -1.76969626821482        0.18292218645836
H           -7.60357986760549       -2.68386630644455        1.31067060913919
H           -7.33039999222378       -0.94169047295671        1.08382687852158
H           -4.84165842246466       -2.91971854785565       -2.28409562059619
H           -2.51393998240940       -3.39912334582007       -1.81169297944924
H            5.47669185618857        1.44428997475428        0.29063537697089
H            4.26212994489050        1.15196345918656        1.53733077578289
H            4.91637612666761       -0.19658735977532        0.62159188824981
H            3.99329643262045        4.23869332929558       -1.42690380114961
H            5.35033736548914        3.13210122935877       -1.20531692900738
H            4.35096321969524        3.59216005155415        0.17659196798235
H            2.40176279595324        3.25166189278570       -2.72302415820932
H           -0.46563352085873        1.36975811562632       -3.15144834105405
H            0.63313942686689        2.50276806484332       -3.95538048694983
H            0.69540588258839        0.78016284054426       -4.33825806871209
H            0.52217666557266       -1.16651321295986       -3.04687628577089
H            0.82652800939089       -1.85172161234381       -1.44510884778848
H           -2.37466336439672        0.65977739584133        1.36372503334104
H           -4.51998859013744        1.41943038861081        2.19229835346377
H           -7.55714517024705        2.78268711841434       -0.81809657353403
H           -8.07625177800604        1.08362660643131       -0.78961539487082
H           -8.73643639047954        2.22334326750621        0.37987283830717
H           -7.96899871665032        2.33689942319521        2.31941342829752
H           -6.56598774402671        1.40933645856999        2.84095886288399
H           -6.35726178575305        3.07056718634732        2.24913607260211
H           -6.17008006407840        0.96765109741349       -1.75129410202884
H           -4.01451211403082        0.19439563617893       -2.54602068064459
H            5.95971109224827       -2.71139442846072        1.68603325468966
H            4.80495601741751       -4.02047053202431        1.91260917505023
H            4.69407649590497       -2.99872614768098        0.48179277538301
