130
 energy: -172.089931142185 gnorm: 0.000071749020 xtb: 6.7.1 (edcfbbe)
C            2.66144589696944       -3.33047508149926        5.69897024744905
C            2.48529732060566       -2.17306315201923        4.76084780694095
C            3.11865560823890       -0.97167034764884        5.03148967292094
C            2.98422905984782        0.12552374338816        4.19528357609695
C            3.68743703443559        1.40741562007894        4.53616175320289
C            2.18865660118965        0.01011976686117        3.05713406153694
C            2.01156902924024        1.22902915821565        2.17802136445817
C            3.16909489647126        1.39309996453598        1.31948532793760
C            4.14871665945587        1.47712546539248        0.62525349158693
C            5.28508390538378        1.57969107811733       -0.20919013134841
C            5.17896111311552        2.07537795483852       -1.50841603096407
C            6.28316445946094        2.16693327411932       -2.32627665521719
C            7.55464584818431        1.76351435128696       -1.88742159182831
N            8.65128411971873        1.81802882818717       -2.71439855929154
C            9.96961965745648        1.58142725672664       -2.17506378574514
C            8.55364377244888        2.47412823552362       -3.99661265097750
C            7.65154374840331        1.27189475495554       -0.57605242441439
C            6.54445156240430        1.18206013809230        0.23929592398106
C            1.54539912766507       -1.19910773352841        2.73746595762394
B            0.70242861051086       -1.32838408172812        1.40200899662051
C           -0.77430961988620       -1.89438381583071        1.41331796627376
C           -1.15690391136614       -2.89873081690480        0.50383185770474
C           -0.16663164533759       -3.53288605781621       -0.43053884054116
C           -2.47086340141638       -3.36464114086079        0.46718130081257
C           -2.89469496608701       -4.41964781954399       -0.51074044002701
C           -3.40119812250820       -2.83806634799814        1.34661818241807
C           -3.05870430350853       -1.86392194212642        2.26875867958697
C           -4.10792660941510       -1.33321873372884        3.20306297734334
C           -1.74383512064718       -1.39941672906353        2.30491235453105
C           -1.41576618057892       -0.29584387734183        3.28829048005962
C           -1.94355293464213        0.96772605477740        2.80785658348336
C           -2.40217585155641        1.98776926184159        2.36067585207506
C           -2.95764317835654        3.16896055207805        1.81700928761223
C           -3.47176746507324        3.17068899092785        0.51940081178048
C           -4.03401663718195        4.30693256287074       -0.01833301721457
C           -4.10903280127166        5.50319837430257        0.71396175121156
N           -4.64242021731499        6.64393629775789        0.16448567442007
C           -4.81594471283484        7.82456538030728        0.97639106604783
C           -5.36657487498700        6.56795881559390       -1.08281314742870
C           -3.59051917695451        5.48856522762434        2.01872004444526
C           -3.02757086208228        4.35055968177749        2.55399933317481
C            1.35994875385135       -0.89947350700367        0.02796709001852
C            2.62482064188566       -1.37761800450556       -0.35705444359769
C            3.40570045810709       -2.32993498144447        0.50261380136189
C            3.18577067510228       -1.00286080041187       -1.57866231074421
C            4.54048943094631       -1.49468311508180       -1.99337321646891
C            2.47704134658471       -0.16478826529371       -2.42163190087659
C            1.22911385315444        0.32637064465294       -2.07548459938328
C            0.50564484592706        1.24246422514774       -3.02039057597049
C            0.68112534168614       -0.03374955981121       -0.84592592804299
C           -0.65475049261485        0.56419765893074       -0.46222177975014
C           -1.74637524922196       -0.11325250119531       -1.13389610715332
C           -2.64614602906331       -0.69612556443827       -1.68106212295709
C           -3.72120284000963       -1.37745187183388       -2.29595279413104
C           -4.97574411692687       -1.42102066659987       -1.68806815999100
C           -6.02782046361204       -2.08691077020549       -2.27656296391495
C           -5.87827248165540       -2.75039338123064       -3.50513684433783
N           -6.91716311755275       -3.45053989278722       -4.07230245268975
C           -8.25049362627010       -3.31385033849500       -3.53463183052981
C           -6.78255336646728       -3.97744908009588       -5.40975716771850
C           -4.61367046516743       -2.69410325787694       -4.11185497364958
C           -3.56360006573092       -2.02598734531021       -3.52034328556509
C            1.69907022015038       -2.29036120567525        3.61242039836847
C            1.06876498897120       -3.62438790023470        3.33013229405347
H            3.14233747885819       -4.16792638686757        5.19318531866802
H            1.69842710078693       -3.67800690408852        6.07198820502564
H            3.27735443856164       -3.04300026030321        6.54805620011559
H            3.73385063218458       -0.88654803820313        5.91760928219367
H            4.24458125217331        1.78225326508726        3.67869259054869
H            2.97045182360080        2.17439369622950        4.83419346809082
H            4.37854721785841        1.25246546054584        5.36185128515845
H            1.12069072862120        1.13167708951957        1.55828474933552
H            1.89174390716976        2.12469065804990        2.79611207130153
H            4.21109544141751        2.38878409343494       -1.87359423001521
H            6.14749378526654        2.56105932565432       -3.32040961496688
H           10.21627292688589        2.28223669128736       -1.36836370403523
H           10.70817178056564        1.69457612568822       -2.96487437902776
H           10.04650783365637        0.56234265464615       -1.78795084536824
H            9.51139173120368        2.41119969239779       -4.50763109660722
H            7.80776022538181        1.97751023949292       -4.62161374255861
H            8.28172338897006        3.53240794875413       -3.90012288690440
H            8.60173324985358        0.95303098124682       -0.17942159823197
H            6.65215888616475        0.79651814137635        1.24465931033523
H            0.85259536218420       -3.26403068901778       -0.18401065192075
H           -0.36688966866892       -3.21252736477354       -1.45350653217078
H           -0.25581214839839       -4.61826192065806       -0.39841531507265
H           -2.64897385891718       -4.11845577444681       -1.52783644781380
H           -3.96817732437005       -4.58313884363096       -0.45132956932870
H           -2.39117979330339       -5.36561147318881       -0.30813964111800
H           -4.42171883765217       -3.19596841671849        1.31051727106080
H           -3.87353661314696       -1.58881660291201        4.23747790445998
H           -5.07916671488982       -1.75938022151386        2.96132894875334
H           -4.17594027740588       -0.24822319214763        3.13080309789158
H           -1.85794233771193       -0.51845827560174        4.26418012734764
H           -0.33784247040607       -0.20634702652909        3.42184974948326
H           -3.42842359603566        2.26273250584805       -0.06706200801934
H           -4.41796444825732        4.25521359388967       -1.02414996548471
H           -3.85658005287450        8.14595433029021        1.38777467083270
H           -5.51569603889379        7.65902703369885        1.80499205241173
H           -5.20016105883982        8.63259323973219        0.35830345871263
H           -5.77144235485462        7.54716419661362       -1.32579300549922
H           -4.70030823204601        6.26785382901253       -1.89588126074564
H           -6.19708079274453        5.85428787689625       -1.03051615813385
H           -3.62829694419935        6.37337882230072        2.63304481299431
H           -2.63921468986779        4.36984203695362        3.56346747225098
H            2.82489635286776       -2.68436997694783        1.34440130698138
H            3.73158343651099       -3.19055425877213       -0.08135802380815
H            4.29705457811895       -1.83250150369501        0.88637297707220
H            4.84166040077756       -1.03360471116568       -2.93103972515881
H            4.53896476024512       -2.57705740372659       -2.12682052138756
H            5.28434456255415       -1.25028764939145       -1.23652494130295
H            2.91140827366830        0.11784995662369       -3.37179780155148
H            1.01745077446869        1.27801117913666       -3.97984303401707
H           -0.51745207788952        0.90507938398817       -3.18098117168980
H            0.46642704317410        2.25696856810309       -2.61938979786872
H           -0.82631984977052        0.49437871816470        0.61267095416477
H           -0.67715245201162        1.62610617849758       -0.73024099793770
H           -5.11731488259702       -0.92262605511086       -0.73906015884740
H           -6.97738486966814       -2.08796168824643       -1.76634918163580
H           -8.59489790907085       -2.27266691106977       -3.54598033456963
H           -8.94083534493138       -3.90989042835357       -4.12648596789812
H           -8.28655153227217       -3.68218190812024       -2.50652907599218
H           -5.95295360419730       -4.68636886943084       -5.45602331098519
H           -7.69109601325968       -4.51050210390140       -5.67971154173237
H           -6.61097227335569       -3.18713773203355       -6.15108002548999
H           -4.43933009897848       -3.17447490204981       -5.06089884690417
H           -2.60058859693117       -2.00103753581281       -4.01333116968770
H            0.39055921519232       -3.89924813586317        4.13830475817004
H            0.50857630428557       -3.61666446181900        2.40327355438675
H            1.83440618634642       -4.39860951982218        3.26781844987763
