91
 energy: -150.924709168185 gnorm: 0.000048061483 xtb: 6.7.1 (edcfbbe)
O            8.96995311121106       -2.93516604259501       -0.02897352196339
S            8.72599707486478       -1.61632245176497       -0.57400580760593
O            9.23382162805603       -1.35126989199495       -1.90354546049289
C            9.37708212657322       -0.38313901539532        0.55580649442322
C            9.15523734726073       -0.54694135732299        1.91022246360072
C            9.62042005293413        0.41695070954833        2.78955612680951
C           10.29366172707799        1.52815293089021        2.30375252749295
C           10.50953042606007        1.68021322907412        0.94277673713947
C           10.04532288358182        0.71871686135031        0.05907257501745
C            6.95534498698600       -1.31306919953972       -0.56247660184361
C            6.47077155488721       -0.18969645350143       -1.20711286414495
C            5.11392066509423        0.07529348102863       -1.17820476074487
C            4.25197184503593       -0.78358516440306       -0.49815675496988
N            2.86143359067253       -0.51235564812907       -0.46850878506224
C            2.39434175706283        0.54942956609339        0.29955624917400
C            3.27913627571840        1.30382551658910        1.07539486583756
C            2.82759300510671        2.36201388133551        1.83810849279482
C            1.48206426696260        2.68773332039908        1.85353805246400
C            0.59885228989425        1.92809459807579        1.10998206277084
C            1.03314971678312        0.86036319852274        0.33836336246024
C           -0.00437450422898        0.05700536737571       -0.42006119903753
C            0.62284191092179       -1.07512873038168       -1.20886100302545
C           -0.21145987038078       -1.88804549825069       -1.96180873661616
C            0.28951115398828       -2.92037868264874       -2.73203553655581
C            1.65710006215840       -3.13387135007693       -2.76275871879483
C            2.50337201537093       -2.33598386509344       -2.01947973230049
C            2.00006650644832       -1.30774432113998       -1.21746526490378
C           -0.97073478464537       -0.54238059682046        0.58176700248141
C           -0.46896865726127       -1.42321592987512        1.52867111734107
C           -1.29405124290149       -2.03913100341935        2.45046966767644
C           -2.65413152524913       -1.78352594993622        2.41165555898843
C           -3.17186676903656       -0.90845616223200        1.47808732134584
C           -2.33812088980050       -0.25803784529133        0.56378735098058
N           -2.87027995820145        0.62797543625384       -0.36818280963192
C           -4.25826740650952        0.90854882583793       -0.33828253223999
C           -5.08792973480097        0.43163621061046       -1.35175732792052
C           -6.44331394192997        0.70456944630489       -1.31959452116445
C           -6.96005296807482        1.45277710326369       -0.27803596578991
S           -8.73115460989870        1.74399898380690       -0.20973089238123
O           -9.23518738891008        1.86171745928381       -1.56164392355407
O           -8.98237817141219        2.85319575475622        0.68606308138969
C           -9.37384653205981        0.23802895660673        0.52506673589151
C           -9.29977287332498        0.08168304524500        1.89617336530002
C           -9.74706904411812       -1.10006957292804        2.46404606249295
C          -10.25529725015893       -2.10598255694026        1.65567658457515
C          -10.32532480880551       -1.93581571602015        0.28145373401015
C           -9.87883257371688       -0.75549980995043       -0.29104502148567
C           -6.15008283621967        1.93257713070719        0.73403669465620
C           -4.79364530780824        1.66363326965823        0.70336941169889
C           -2.07322845704722        1.24656806706976       -1.32652183252088
C           -2.62574893588359        2.16962336401208       -2.21915274407144
C           -1.84551296463893        2.78138988871714       -3.17951702440861
C           -0.49347346361658        2.49634653667794       -3.26684166245371
C            0.06443696554534        1.60859620393773       -2.36663568942037
C           -0.70281483208110        0.98490606159332       -1.39385344805766
C            4.75570057445441       -1.90981376752873        0.14874735086340
C            6.11353222719757       -2.17376044625507        0.11560369734513
H            8.63884236872600       -1.42843310814863        2.25618312155655
H            9.45820561674652        0.30093342600128        3.85021529781367
H           10.65555843462820        2.27814001143508        2.99084063347439
H           11.03735665137791        2.54412410135145        0.56882063388815
H           10.20044315372841        0.79693514729614       -1.00589085507009
H            7.15659089287709        0.45049639828306       -1.73857997188976
H            4.71418409661902        0.94427598257393       -1.67844175194048
H            4.32918723730047        1.05568600454525        1.08518237952180
H            3.53299196830376        2.93132338401715        2.42509466865191
H            1.12388222085298        3.51641587211379        2.44495454765107
H           -0.45597486607703        2.16120309209370        1.12382900215301
H           -1.27506206507811       -1.69966271102093       -1.93982046857375
H           -0.37668123106156       -3.54372682524132       -3.30858852252950
H            2.07267678251770       -3.92377345062726       -3.37097433449132
H            3.56754428936864       -2.50817104847433       -2.06727749720571
H            0.59194171504219       -1.62706323296037        1.53480910671195
H           -0.88307573297646       -2.71857105347077        3.18137472345365
H           -3.32031627988193       -2.26948848436135        3.10902887288914
H           -4.23602288884410       -0.73236053449252        1.45314992386609
H           -4.66452254691546       -0.14708458526740       -2.15862075384684
H           -7.10551592140235        0.35700042437305       -2.09631639526224
H           -8.91133288472384        0.88929862859323        2.49631289421423
H           -9.69982749642091       -1.23472470706924        3.53384962777392
H          -10.60311637240945       -3.02632211421017        2.10010568805524
H          -10.72716233396022       -2.71847877218081       -0.34366731379231
H           -9.92817672095940       -0.58164768809982       -1.35463971350750
H           -6.59071026832433        2.52685837147795        1.51878678508465
H           -4.14443362100002        2.03285390897715        1.48280200414106
H           -3.67450491396775        2.41617544397046       -2.15711510941457
H           -2.29931155692261        3.48743444467489       -3.85929709169224
H            0.11993946289369        2.96782727393539       -4.01936138373927
H            1.12142513389405        1.38955804175048       -2.41108809841329
H            4.08098863999075       -2.57299140705063        0.66859318912282
H            6.53474059093144       -3.04121061004127        0.59919055754213
