  91
       -150.75748155
 O          9.1621216522       -2.2978785134        0.4267465043
 S          8.8058691912       -1.1128400383       -0.3174827616
 O          9.3260049877       -0.9731792589       -1.6572835613
 C          9.2337065613        0.3392836044        0.6387431891
 C          9.2631686773        0.2574033822        2.0207564541
 C          9.4978804018        1.4011409373        2.7622020692
 C          9.6920486531        2.6160401176        2.1197421246
 C          9.6585276338        2.6880977124        0.7340041900
 C          9.4242995072        1.5469472759       -0.0114659946
 C          7.0300803209       -0.9717093638       -0.3690349939
 C          6.4309094417       -0.2246803614       -1.3809218666
 C          5.0695205126       -0.0287780327       -1.3712819281
 C          4.2985130410       -0.5724673158       -0.3366032013
 N          2.8896781481       -0.3743344434       -0.3243714346
 C          2.3574806269        0.5606725583        0.5352167326
 C          3.1983804097        1.3299805774        1.3571569090
 C          2.6747634880        2.2571336885        2.2257937778
 C          1.2960427929        2.4512763979        2.3007585038
 C          0.4615790276        1.7148489864        1.4815043605
 C          0.9667475134        0.7757335496        0.5970910181
 C          0.0062576712        0.0227150452       -0.2910865673
 C          0.7067384532       -0.9642118116       -1.1939863063
 C         -0.0535569622       -1.7335827787       -2.0598824378
 C          0.5326943312       -2.6643654753       -2.8962318681
 C          1.9147619696       -2.8446158761       -2.8583956864
 C          2.6889894544       -2.0934288171       -2.0071162339
 C          2.1052763161       -1.1296332220       -1.1678061252
 C         -0.9446723310       -0.7557322273        0.5858830504
 C         -0.4294788869       -1.7106692861        1.4474119728
 C         -1.2550704104       -2.4653267937        2.2589763500
 C         -2.6347880864       -2.2728996548        2.2008789919
 C         -3.1684591461       -1.3319532581        1.3532993640
 C         -2.3367794577       -0.5467900360        0.5375458358
 N         -2.8792992012        0.4013829736       -0.3005243544
 C         -4.2916155760        0.5796461753       -0.3133077471
 C         -5.0565319025       -0.0007857297       -1.3317994896
 C         -6.4207976939        0.1761435018       -1.3438867437
 C         -7.0279232008        0.9403894189       -0.3499246160
 S         -8.8049788368        1.0742637900       -0.3057450033
 O         -9.3185083473        0.9512168605       -1.6496546745
 O         -9.1638774579        2.2499794476        0.4518669848
 C         -9.2444722277       -0.3886604603        0.6292160745
 C         -9.2442949193       -0.3330235574        2.0128301110
 C         -9.4994162181       -1.4834340485        2.7369377631
 C         -9.7440807834       -2.6789555636        2.0754252976
 C         -9.7395958713       -2.7248541788        0.6883968563
 C         -9.4847446537       -1.5767796909       -0.0398580042
 C         -6.2708192356        1.5160783299        0.6679406216
 C         -4.9064923006        1.3412844782        0.6873210164
 C         -2.1037805461        1.1874889564       -1.1232106822
 C         -2.6991334187        2.1680681148       -1.9342027272
 C         -1.9333995971        2.9535270754       -2.7619723901
 C         -0.5495641632        2.7890352278       -2.8059456267
 C          0.0471510916        1.8373649144       -2.0010363038
 C         -0.7041509035        1.0348513770       -1.1577537784
 C          4.9056815583       -1.3171868681        0.6817245345
 C          6.2672474966       -1.5112440667        0.6645955558
 H          9.1226854301       -0.7047677548        2.4877134924
 H          9.5328078234        1.3473184947        3.8400552884
 H          9.8759765649        3.5077600662        2.6999266811
 H          9.8171028943        3.6336088196        0.2373260802
 H          9.4048429598        1.5653994329       -1.0898079362
 H          7.0530088299        0.1695664657       -2.1678349896
 H          4.5838120745        0.5385436383       -2.1512710957
 H          4.2664430639        1.1903627796        1.2959157943
 H          3.3367209447        2.8365687149        2.8501505508
 H          0.8842782430        3.1749099437        2.9857587801
 H         -0.6071435629        1.8688018771        1.5212707302
 H         -1.1250814409       -1.5961828103       -2.0731333666
 H         -0.0748293028       -3.2507859654       -3.5667313323
 H          2.3816672007       -3.5781778844       -3.4967300712
 H          3.7562116777       -2.2446171542       -1.9739704055
 H          0.6399972081       -1.8613702049        1.4766803967
 H         -0.8353641968       -3.2007819166        2.9263824927
 H         -3.2894117839       -2.8648315316        2.8211767576
 H         -4.2371331096       -1.1917389196        1.3054657351
 H         -4.5643336172       -0.5803137510       -2.0986352109
 H         -7.0376701746       -0.2462689502       -2.1202359584
 H         -9.0657648622        0.6149519411        2.4955450550
 H         -9.5114301727       -1.4498935447        3.8160924242
 H         -9.9445164532       -3.5755993532        2.6423909575
 H         -9.9369775858       -3.6550630646        0.1769639450
 H         -9.4868498640       -1.5743317897       -1.1185669777
 H         -6.7753877678        2.1114977924        1.4113129817
 H         -4.2994724970        1.7877813018        1.4607764218
 H         -3.7683601727        2.3041266893       -1.8973603747
 H         -2.4083648681        3.7011965285       -3.3775930469
 H          0.0511317367        3.4025706501       -3.4580835391
 H          1.1198431937        1.7099536364       -2.0209942441
 H          4.2943735866       -1.7352296936        1.4676822851
 H          6.7642938196       -2.0939350427        1.4229356820
