91
 energy: -150.924685366216 gnorm: 0.000109330359 xtb: 6.7.1 (edcfbbe)
O            9.17145900626108       -2.17066819309921        0.79373415029892
S            8.82783161908683       -1.11380996488337       -0.13451701486101
O            9.32257009813565       -1.24748415986088       -1.48841849934262
C            9.37986731395442        0.45765436005301        0.53600414863702
C            8.96991298770381        0.80645631988542        1.80923576444531
C            9.37003217318014        2.02387362049157        2.33493829831674
C           10.17052950353518        2.87149959328238        1.58325546749489
C           10.57412515529112        2.50946336635822        0.30748948926438
C           10.17454385444054        1.29298086967914       -0.22362470690943
C            7.03929184736071       -0.95445103292175       -0.18004589751928
C            6.47807462216594       -0.06508331108267       -1.07806606946499
C            5.10535807819377        0.10048830421992       -1.09855523680363
C            4.30436233736995       -0.62113606654290       -0.21472296518083
N            2.89861839934930       -0.44557079921183       -0.22967682790647
C            2.35942631650402        0.74121387148212        0.25731504845566
C            3.19060081026284        1.72810388365021        0.79512087507671
C            2.66701570513197        2.91102530961223        1.27681684044933
C            1.30117445644862        3.13469576526823        1.24400420117137
C            0.47211544428672        2.15108233518288        0.73901026724460
C            0.97935654844238        0.95613623725545        0.25011222211085
C           -0.00085883586932       -0.08140253115973       -0.25995965642610
C            0.70217510805031       -1.33425815189848       -0.74234761808369
C           -0.07557581395909       -2.37013009334552       -1.23833971666537
C            0.49432795993747       -3.53029756872511       -1.72740307326409
C            1.87366066795813       -3.64935994696752       -1.73754839636478
C            2.66445245618416       -2.62915892230770       -1.24837023326750
C            2.09274013244015       -1.46568137931912       -0.72547366072668
C           -0.92710216315481       -0.46158220044434        0.87760133363673
C           -0.37253037280561       -1.05221301047417        2.00360229819026
C           -1.15614247348268       -1.45236893816213        3.06930064725126
C           -2.52721990037951       -1.27365421327458        2.99980702653048
C           -3.09751081790733       -0.68743557122862        1.88787528542537
C           -2.30713627135896       -0.25428101114241        0.81934463284898
N           -2.89278994259758        0.33942357925408       -0.29472179522923
C           -4.29326255412285        0.55075251754176       -0.30724448319099
C           -5.10590645231056       -0.21366606686937       -1.14324136473437
C           -6.47291107513305       -0.00558834214487       -1.15523889028886
C           -7.01779769314157        0.96342343343848       -0.33289253487501
S           -8.80023225685781        1.18360719156178       -0.32470499276781
O           -9.28181916308935        1.14115571310947       -1.68930310405452
O           -9.11347052405781        2.36934366903213        0.44477859597444
C           -9.40234284621154       -0.26163301476127        0.55284459993056
C           -9.16573482148562       -0.35094098169691        1.91169999559547
C           -9.59573716448488       -1.47517813570321        2.59703009276014
C          -10.25017904949168       -2.49104973412010        1.91598414339927
C          -10.48070571197642       -2.38896923930435        0.55282019024398
C          -10.05156140166523       -1.26624017307723       -0.13730286000504
C           -6.22588967977324        1.72702834515155        0.50328729782757
C           -4.85749128853629        1.52369287461064        0.51496410561349
C           -2.13895304127189        0.72219623781845       -1.39999053668982
C           -2.74809849907540        1.35001553793297       -2.49035333153485
C           -2.01080323395002        1.72506847028680       -3.59540052785494
C           -0.64628761028572        1.49426382994389       -3.63590876544351
C           -0.03343830344710        0.90300383111264       -2.54750268479386
C           -0.75724015301728        0.51947587595085       -1.42807962425471
C            4.88498756021910       -1.51380916756071        0.68353011120332
C            6.25855908402175       -1.67971396285655        0.69948578429703
H            8.35587697341112        0.12179946322695        2.37308680387835
H            9.05959347064640        2.30920414283373        3.32837864939503
H           10.48253726467895        3.81935651943429        1.99527988353669
H           11.19860658120587        3.17041978930633       -0.27385220819160
H           10.46800161165664        0.97420736738182       -1.21197873809288
H            7.11855635932228        0.47271600363892       -1.75885979269445
H            4.64637098909841        0.78784617203364       -1.79280098572649
H            4.25621385495707        1.56541163419227        0.84102077347666
H            3.33221950103967        3.65877090818576        1.68263177649053
H            0.88627271694213        4.05892521834682        1.61609123824561
H           -0.59691975036561        2.30553007007160        0.72028462269177
H           -1.14991392627213       -2.25552452015472       -1.23945920472783
H           -0.12834256098251       -4.32634975882147       -2.10600185031781
H            2.34157963461813       -4.53914821146461       -2.13238431096107
H            3.73808317725444       -2.73360406510371       -1.27858549111032
H            0.69715595793436       -1.19933047387128        2.03657586473625
H           -0.70437511207665       -1.90662451543045        3.93785416583998
H           -3.16086147220815       -1.59510403434768        3.81311085197975
H           -4.16911089083305       -0.56980901251870        1.84445994411670
H           -4.65952254174248       -0.96276113408561       -1.77952698571597
H           -7.12195949484497       -0.57674597219343       -1.79960109399521
H           -8.66516157677196        0.46211893927206        2.41353994922122
H           -9.42170470910998       -1.55775977701516        3.65893386118412
H          -10.58431790993657       -3.36656051573340        2.45204333328198
H          -10.99349055967947       -3.17972506237760        0.02693238753827
H          -10.21829918912923       -1.14623834269815       -1.19661440194690
H           -6.69285461859432        2.48002695223829        1.11866215133398
H           -4.22167317015388        2.11274296207351        1.15840549683417
H           -3.80780077590559        1.55269965377625       -2.47084791418067
H           -2.50827955061495        2.20433039160994       -4.42571080698652
H           -0.06582447935335        1.78131199157933       -4.49933797746741
H            1.03351786219910        0.73366576689421       -2.55685670295911
H            4.25753453788294       -2.07307335367038        1.36092130505169
H            6.74044888945020       -2.36437862733833        1.37996036719793
