91
 energy: -150.831087956047 gnorm: 0.000154539346 xtb: 6.7.1 (edcfbbe)
O            9.17102624474621       -2.27070407228843        0.45562493704763
S            8.80649461616454       -1.07615419827038       -0.28776180347793
O            9.34083710825936       -0.95260334303270       -1.63368661003981
C            9.28112670326023        0.35979418923217        0.65614825814319
C            9.29499902659430        0.28795882687181        2.04179380143390
C            9.56393728248801        1.42699570032699        2.77674036064653
C            9.80808923529429        2.63162228635966        2.12844305898296
C            9.78804192868246        2.69476274875220        0.74054141651429
C            9.51944830102196        1.55902845929874        0.00025752051885
C            7.04218362347699       -0.95491632428819       -0.35443132693205
C            6.44161180036393       -0.19775259941550       -1.36335068274373
C            5.08079058105915       -0.00899557090840       -1.35815311570923
C            4.30362686416733       -0.56565092432233       -0.33164275351603
N            2.89232563647716       -0.37602430292636       -0.32723158502508
C            2.34588310989678        0.55920932291673        0.52593457991288
C            3.17891528251397        1.33199942410629        1.35117650391665
C            2.64561717713236        2.26010814835065        2.21622341260875
C            1.26983081706785        2.44910111359801        2.28028533972565
C            0.44222889128007        1.70745701722460        1.45718316631077
C            0.95778471878155        0.76756997896358        0.57822299031040
C           -0.00106646903166        0.00646122608592       -0.31295290932773
C            0.71796762230179       -0.98054936015360       -1.20887141313888
C           -0.03323597503545       -1.75720311665651       -2.07747715343549
C            0.56502838496042       -2.68649855380712       -2.90855230676703
C            1.94397221276320       -2.85641450941960       -2.86330489695430
C            2.70896473820538       -2.09621603055373       -2.00832317071799
C            2.11336519392270       -1.13684729801894       -1.17343131075079
C           -0.95916069267143       -0.77454617852720        0.56147563232048
C           -0.44270116595755       -1.73473358826298        1.41763753435470
C           -1.26935828917328       -2.49533479105453        2.22418015629177
C           -2.64526116758182       -2.30548360421955        2.16527612380076
C           -3.17948643663935       -1.35782126470379        1.32231376708774
C           -2.34732124993757       -0.56507747047439        0.51520155508097
N           -2.89445481344417        0.39000672718654       -0.31534606104843
C           -4.30556834264477        0.57917656273067       -0.31427175555313
C           -5.08196121459165        0.05868305690524       -1.36030289712307
C           -6.44297659714235        0.24588762015382       -1.35913134142752
C           -7.04500477063978        0.96494309419311       -0.32342921191361
S           -8.80928978041877        1.08307407676589       -0.25205187283944
O           -9.34499613170267        0.98582909194730       -1.59957192535694
O           -9.17389914242175        2.26239238162734        0.51529426527114
C           -9.28232888779831       -0.37079946912635        0.66488454826745
C           -9.30435379665699       -0.32195163652189        2.05144354829019
C           -9.57268293348264       -1.47396793264535        2.76610323810732
C           -9.80832297718006       -2.66867422751117        2.09670430152687
C           -9.78024145335701       -2.70878650123871        0.70803999675941
C           -9.51206387242366       -1.56002445671975       -0.01199269678480
C           -6.27610281430132        1.47990396634317        0.72354436366310
C           -4.91502158783420        1.29315032111820        0.72815843079603
C           -2.11610600795743        1.16968815770992       -1.14480788579535
C           -2.71190539903192        2.14917498217480       -1.95598036031016
C           -1.94766148293294        2.92730427465940       -2.79531764031857
C           -0.56908182326148        2.75636371275603       -2.84761606941973
C            0.02963589795850        1.80822915764599       -2.03843283168704
C           -0.72081712199744        1.01320032766754       -1.18597487379582
C            4.91173279681551       -1.31676406036689        0.68492598087668
C            6.27262225219858       -1.50526617225626        0.67367329947095
H            9.11540630694934       -0.66609615351612        2.51275025437304
H            9.58680328345540        1.37894694084952        3.85522713007369
H           10.01915750970534        3.51972573398978        2.70449255031401
H            9.98519644991231        3.63022617970472        0.23852816795325
H            9.50971739984617        1.56938249053230       -1.07868652022445
H            7.06770662452220        0.20748957328504       -2.14195551468083
H            4.60171512541471        0.56429570589036       -2.13723822232165
H            4.24731506096649        1.19596012908001        1.29788315079953
H            3.30319036535798        2.84284296193186        2.84259587729662
H            0.84968628053204        3.17293474798735        2.96066123035654
H           -0.62598087174874        1.85892256955292        1.49201719105143
H           -1.10482701754817       -1.62902198825648       -2.09910840203041
H           -0.03565192832314       -3.27879782865213       -3.58064601248229
H            2.42211741443370       -3.58704722669485       -3.49737626703207
H            3.77717743417503       -2.23870445835341       -1.97104124568481
H            0.62552764603396       -1.88704621875832        1.44758294097531
H           -0.84844935976392       -3.23463589688607        2.88722368713398
H           -3.30228198157656       -2.90299050935733        2.77816747836104
H           -4.24804278920942       -1.22204001175636        1.27234728935891
H           -4.60200312308442       -0.48576078025549       -2.15928303954750
H           -7.06850811174617       -0.13195369255155       -2.15186636550667
H           -9.13175075053059        0.62500240668364        2.53898367841452
H           -9.60212225006613       -1.44348050354565        3.84508714307868
H          -10.01931656842881       -3.56693283997803        2.65681347940533
H           -9.97070742651945       -3.63662014644880        0.18958758777676
H           -9.49602928820822       -1.55291985885646       -1.09089376576930
H           -6.77465806483627        2.03762890807156        1.49990638582433
H           -4.30699171714466        1.69553329132474        1.52407970432788
H           -3.77971240323074        2.29290487543100       -1.91286664242744
H           -2.42608738268005        3.67303024702661       -3.41135441106269
H            0.03100142050845        3.36258305803162       -3.50773493087649
H            1.10102353504609        1.67933789505051       -2.06494001283207
H            4.30313219269613       -1.74578793633134        1.46638185354167
H            6.77057120485274       -2.09118508510311        1.42940807455868
