  52
  -78.8998219510000       0.187364237007957      !
 O         -1.9460639740        0.0190815799        2.4736780714
 C         -2.9273585411       -0.8657789325        1.9770723906
 C         -3.6279294557       -0.3518886503        0.7419648848
 C         -5.0128965580       -0.3061217542        0.6875494168
 C         -5.6694271778        0.1901095746       -0.4258730889
 C         -4.9364834593        0.6685993164       -1.4992245754
 C         -3.5563021400        0.6347172472       -1.4568636882
 C         -2.8843930813        0.1125276908       -0.3520539403
 C         -1.4162566028        0.0584650749       -0.3644973079
 C         -0.6604420789        1.2691184662       -0.3894544515
 C         -1.2782359618        2.5203263313       -0.3534941080
 C         -0.5304668464        3.6970138366       -0.4260649290
 C          0.8408553421        3.6352899676       -0.5400725667
 C          1.4850859860        2.3964343573       -0.5413129001
 C          0.7627168918        1.2066353019       -0.4291073182
 C          1.4173765545       -0.0592864859       -0.3696187549
 C          2.8853868444       -0.1127724639       -0.3545377425
 C          3.5612417834       -0.6402311372       -1.4542993989
 C          4.9416331395       -0.6755757254       -1.4908134820
 C          5.6707541924       -0.1931693740       -0.4167113062
 C          5.0102003331        0.3092450692        0.6916033771
 C          3.6251927450        0.3565497767        0.7401476757
 C          2.9191412270        0.8748859729        1.9702429024
 O          1.9445374675       -0.0149085289        2.4724285033
 C          0.6614593395       -1.2700493244       -0.3908308265
 C          1.2791985740       -2.5213376835       -0.3571619782
 C          0.5310464056       -3.6979652866       -0.4257595802
 C         -0.8408771717       -3.6362736636       -0.5324493783
 C         -1.4849995232       -2.3974350096       -0.5311177527
 C         -0.7619544926       -1.2076267832       -0.4242123014
 H         -1.3884093813        0.2406781492        1.7125740001
 H         -3.6473372057       -1.0025732687        2.7860048453
 H         -2.4617853158       -1.8366498892        1.7543150908
 H         -5.5839837267       -0.6582475860        1.5341732939
 H         -6.7479616545        0.2133118102       -0.4498941677
 H         -5.4385031259        1.0664075130       -2.3681209639
 H         -2.9763675288        0.9930371177       -2.2948676046
 H         -2.3505526926        2.5761424293       -0.2675673991
 H         -1.0362996159        4.6498428202       -0.3994047784
 H          1.4264496615        4.5384442330       -0.6189026262
 H          2.5577683403        2.3532308988       -0.6368632723
 H          2.9846207898       -1.0017439566       -2.2931740812
 H          5.4467683454       -1.0777861603       -2.3557590328
 H          6.7493441258       -0.2175888866       -0.4361634693
 H          5.5782047093        0.6653070665        1.5386589530
 H          2.4455950037        1.8396438839        1.7395550808
 H          3.6366290561        1.0237136551        2.7789305636
 H          1.3871953591       -0.2428307673        1.7132059991
 H          2.3519348190       -2.5773628507       -0.2774117275
 H          1.0370669691       -4.6507888056       -0.4024251406
 H         -1.4268760728       -4.5394756489       -0.6076290508
 H         -2.5581912887       -2.3542898881       -0.6206135207
  52
  -78.8996721849000       0.159903866357825      !
 O         -2.0813931379        0.0058819378        2.4814199978
 C         -3.0475934244       -0.8745974435        1.9483688907
 C         -3.6840515710       -0.3630221930        0.6782072999
 C         -5.0641776125       -0.3281233959        0.5460760206
 C         -5.6609538136        0.1724023047       -0.5987432807
 C         -4.8729658903        0.6708069516       -1.6230996819
 C         -3.4973271590        0.6464770802       -1.5036229209
 C         -2.8842991150        0.1139605914       -0.3696281450
 C         -1.4172512111        0.0583990979       -0.3162023416
 C         -0.6615576555        1.2696373548       -0.3125058876
 C         -1.2832298761        2.5177613521       -0.2520440195
 C         -0.5392905832        3.6978300882       -0.3073554414
 C          0.8309800346        3.6414950152       -0.4366549618
 C          1.4789340080        2.4049377924       -0.4639692259
 C          0.7615453855        1.2114950807       -0.3575388904
 C          1.4173526676       -0.0542195402       -0.3135463126
 C          2.8842473034       -0.1136731809       -0.3666910984
 C          3.4937426869       -0.6529962298       -1.4996000045
 C          4.8689913690       -0.6893081228       -1.6185203703
 C          5.6605468830       -0.1960858266       -0.5943876342
 C          5.0672033083        0.3128570398        0.5483808559
 C          3.6872506895        0.3599015772        0.6799898578
 C          3.0565923226        0.8817505792        1.9489809258
 O          2.0749170422        0.0189746592        2.4815217066
 C          0.6615037743       -1.2655596969       -0.3102905346
 C          1.2828023934       -2.5137478305       -0.2476991469
 C          0.5390142414       -3.6938337076       -0.3046140974
 C         -0.8309410480       -3.6374546419       -0.4371060715
 C         -1.4786152352       -2.4008444761       -0.4658963403
 C         -0.7613770163       -1.2073134966       -0.3582182359
 H         -1.5008007055        0.2297590080        1.7377060441
 H         -3.8058187027       -0.9988361344        2.7238057678
 H         -2.5800981481       -1.8511919669        1.7560186775
 H         -5.6793009606       -0.6946302605        1.3550544894
 H         -6.7364374200        0.1838537837       -0.6851522048
 H         -5.3283858281        1.0754563009       -2.5141975474
 H         -2.8737339515        1.0198375577       -2.3028434048
 H         -2.3555882695        2.5680762679       -0.1620218356
 H         -1.0471489822        4.6486878306       -0.2587494120
 H          1.4131559497        4.5475709945       -0.5076709389
 H          2.5499541029        2.3669064491       -0.5771920370
 H          2.8673185158       -1.0214940175       -2.2987961789
 H          5.3213029397       -1.0993563446       -2.5087037300
 H          6.7360291356       -0.2198837603       -0.6786637841
 H          5.6850059572        0.6730631653        1.3580640911
 H          2.6064137889        1.8662224085        1.7551461970
 H          3.8154531740        0.9939157924        2.7256029477
 H          1.4920150289       -0.1969088239        1.7371902670
 H          2.3548818901       -2.5643731887       -0.1551325338
 H          1.0468729022       -4.6446517007       -0.2551894257
 H         -1.4131708531       -4.5433938454       -0.5094531994
 H         -2.5494388771       -2.3629788614       -0.5809138851
  52
  -78.8996168144000       0.150803855456299      !
 O         -2.2490128023        0.0421858764        2.4913665240
 C         -3.2287937559       -0.8084176199        1.9390758554
 C         -3.7585754329       -0.3317146765        0.6075054708
 C         -5.1247068018       -0.2972403309        0.3665029603
 C         -5.6279313514        0.1645620000       -0.8376017665
 C         -4.7602655570        0.6259329298       -1.8138752372
 C         -3.3987960344        0.6020938505       -1.5857103210
 C         -2.8786626076        0.1057695701       -0.3903219764
 C         -1.4168015290        0.0483100565       -0.2430346791
 C         -0.6669451246        1.2635278246       -0.2156657623
 C         -1.2997802353        2.5048928059       -0.1440742286
 C         -0.5644806202        3.6916185189       -0.1712274579
 C          0.8071141763        3.6475280032       -0.2900759577
 C          1.4650819155        2.4169086316       -0.3393496944
 C          0.7564186347        1.2163799044       -0.2570003850
 C          1.4170573142       -0.0467697313       -0.2433942173
 C          2.8792460410       -0.1054484594       -0.3896752455
 C          3.3992897934       -0.5998861848       -1.5858567391
 C          4.7609839496       -0.6281148971       -1.8122187656
 C          5.6289041466       -0.1734940334       -0.8330288808
 C          5.1255161811        0.2877082877        0.3711686934
 C          3.7590551182        0.3271991641        0.6101238100
 C          3.2302859987        0.8075736477        1.9409060507
 O          2.2404469481       -0.0319935198        2.4913239863
 C          0.6673379235       -1.2619258634       -0.2125052184
 C          1.3006053787       -2.5029919841       -0.1390522834
 C          0.5655981800       -3.6899222928       -0.1621125063
 C         -0.8060812937       -3.6462992625       -0.2799766272
 C         -1.4642938532       -2.4159142172       -0.3325547322
 C         -0.7560322165       -1.2149502987       -0.2530310713
 H         -1.6265309952        0.2200233095        1.7684236271
 H         -4.0398884690       -0.8533807844        2.6687174605
 H         -2.8082038366       -1.8190998944        1.8242954175
 H         -5.8031763742       -0.6328347340        1.1372990569
 H         -6.6933862341        0.1764156764       -1.0079269657
 H         -5.1421517798        1.0013856657       -2.7510795361
 H         -2.7119788151        0.9485195344       -2.3441846224
 H         -2.3737671550        2.5443873423       -0.0668813814
 H         -1.0800755951        4.6376268699       -0.1109581471
 H          1.3826523689        4.5592641885       -0.3400448452
 H          2.5362956025        2.3897443323       -0.4524496242
 H          2.7122704472       -0.9411420097       -2.3465180950
 H          5.1427962396       -1.0016075907       -2.7502394283
 H          6.6946165474       -0.1897412776       -1.0013703641
 H          5.8040611290        0.6185306196        1.1439572924
 H          2.8213241627        1.8231554340        1.8251634158
 H          4.0402959239        0.8438879603        2.6723340867
 H          1.6183873467       -0.2055885000        1.7668715196
 H          2.3747315156       -2.5419430123       -0.0636493308
 H          1.0814259332       -4.6356641123       -0.0997328739
 H         -1.3816144109       -4.5582042451       -0.3267939694
 H         -2.5354266422       -2.3896034517       -0.4462470390
  52
  -78.8995047127000       0.133934996467086      !
 O         -2.1293248494       -1.0004934422        2.4461027013
 C         -2.6723716664        0.2655086836        2.1204576302
 C         -3.5055040306        0.2270341751        0.8626392401
 C         -4.8908362268        0.2653542227        0.9149875902
 C         -5.6460504760        0.2078352495       -0.2437276062
 C         -5.0164485380        0.1085526093       -1.4726228436
 C         -3.6353911047        0.0680866434       -1.5383225237
 C         -2.8700398922        0.1252990025       -0.3788704320
 C         -1.3967503764        0.0893959813       -0.4575614682
 C         -0.6738635999        1.3062983331       -0.5793767048
 C         -1.3313191399        2.5345192187       -0.6799568705
 C         -0.6151792671        3.7298894896       -0.7709684272
 C          0.7613307407        3.7097766572       -0.7439402268
 C          1.4423532991        2.4941625879       -0.6328919895
 C          0.7523635517        1.2833765304       -0.5719533298
 C          1.4315149722        0.0335861787       -0.4370812198
 C          2.8975710814       -0.0004699296       -0.3558086677
 C          3.6567910005        0.3728060630       -1.4643725260
 C          5.0367449542        0.3246171180       -1.4295896925
 C          5.6815978371       -0.0862302474       -0.2747331552
 C          4.9385692071       -0.4357256654        0.8398869286
 C          3.5523384271       -0.3997510093        0.8180037468
 C          2.7613805002       -0.7612196673        2.0535474047
 O          1.8018348702        0.2073554064        2.4163504889
 C          0.7015961111       -1.1923614814       -0.4074853213
 C          1.3453240544       -2.4302245417       -0.4050584266
 C          0.6177093761       -3.6235375977       -0.3559671462
 C         -0.7583618326       -3.5923914799       -0.3229795960
 C         -1.4288372322       -2.3677772222       -0.3558574353
 C         -0.7229651300       -1.1604440189       -0.4049313765
 H         -1.6846312637       -1.3103553002        1.6443446476
 H         -1.8572138965        0.9910539672        1.9969808376
 H         -3.2832284683        0.5583684495        2.9762094830
 H         -5.3788708794        0.3421299088        1.8754306991
 H         -6.7231891267        0.2409320406       -0.1869283102
 H         -5.5989771008        0.0641504206       -2.3803613338
 H         -3.1358233604       -0.0073166259       -2.4934082212
 H         -2.4094796718        2.5522143609       -0.6830144862
 H         -1.1490175488        4.6639186617       -0.8544500433
 H          1.3246394580        4.6283185636       -0.8019007181
 H          2.5188720845        2.4914193521       -0.5870917438
 H          3.1443615801        0.6787880505       -2.3648765837
 H          5.6074626637        0.6056755848       -2.3017042426
 H          6.7593677594       -0.1261059063       -0.2383253309
 H          5.4419770310       -0.7367627421        1.7470518908
 H          3.4315954502       -0.8548261317        2.9102035835
 H          2.2616526347       -1.7279436511        1.8940609646
 H          1.2715519854        0.3610678545        1.6200239186
 H          2.4215817415       -2.4649948543       -0.4514805342
 H          1.1452224970       -4.5649369674       -0.3435707195
 H         -1.3274462832       -4.5080150276       -0.2782124104
 H         -2.5065729386       -2.3466689275       -0.3479374188
  52
  -78.8991693905000       9.392704453823830E-002 !
 O         -1.8076002001       -0.1163797136        2.4271275345
 C         -2.8468801210       -0.9531401326        1.9674770508
 C         -3.5956942842       -0.3972430290        0.7793752246
 C         -4.9808006662       -0.3297505237        0.7947931102
 C         -5.6842110867        0.1985177147       -0.2744603103
 C         -4.9985202908        0.6871837079       -1.3741473196
 C         -3.6186540756        0.6335616326       -1.4010779327
 C         -2.9005860167        0.0798956266       -0.3413892674
 C         -1.4356993535        0.0147050788       -0.4174853089
 C         -0.6713089825        1.2208115411       -0.4424659629
 C         -1.2701752844        2.4787638891       -0.3729638874
 C         -0.5054264232        3.6480402737       -0.4197222189
 C          0.8642455321        3.5736431222       -0.5346549264
 C          1.4931452847        2.3259011967       -0.5678728069
 C          0.7508542615        1.1415422123       -0.4918412708
 C          1.3900170557       -0.1263282853       -0.4431336465
 C          2.8591234053       -0.1872168298       -0.3494379904
 C          3.6219983980       -0.4690423242       -1.4785126015
 C          5.0020233173       -0.5121462487       -1.4031403655
 C          5.6346398620       -0.2808929677       -0.1934794651
 C          4.8819936657       -0.0162845621        0.9377711457
 C          3.4972859116        0.0310499078        0.8757344309
 C          2.6729574065        0.3152779285        2.1092071995
 O          2.3423992466        1.6841741222        2.2410393699
 C          0.6320337299       -1.3277649274       -0.4839150199
 C          1.2459678194       -2.5821550115       -0.4976877558
 C          0.4900228410       -3.7529312784       -0.5830679328
 C         -0.8830142651       -3.6817321678       -0.6652661953
 C         -1.5219321236       -2.4393320702       -0.6284369268
 C         -0.7914608216       -1.2562835031       -0.5077427454
 H         -1.2907590940        0.1173388991        1.6409349856
 H         -3.5274455435       -1.0780841123        2.8118714280
 H         -2.4321199008       -1.9383586205        1.7057082702
 H         -5.5150486199       -0.6911848573        1.6614065718
 H         -6.7621222063        0.2378513829       -0.2440313281
 H         -5.5370355449        1.1087998291       -2.2093044942
 H         -3.0756680041        0.9994185666       -2.2603750245
 H         -2.3406310733        2.5494538399       -0.2772374797
 H         -0.9994650010        4.6058704034       -0.3695452909
 H          1.4613818874        4.4706670560       -0.5892246780
 H          2.5651905346        2.2698540262       -0.6674751613
 H          3.1203893627       -0.6453857806       -2.4190946510
 H          5.5818737767       -0.7257439642       -2.2882344897
 H          6.7114583374       -0.3125133949       -0.1292135801
 H          5.3711484135        0.1538612671        1.8854902496
 H          3.2342278170        0.0566417831        3.0095370847
 H          1.7518770251       -0.2811586699        2.0760737573
 H          1.9140126866        1.9309037751        1.4058551377
 H          2.3213317785       -2.6402383607       -0.4457159499
 H          0.9908094143       -4.7088050834       -0.5924293513
 H         -1.4750823877       -4.5800582475       -0.7504859859
 H         -2.5967581600       -2.3897916537       -0.7009821674
  52
  -78.8990964778000       8.695254551354184E-002 !
 O         -1.8012806778        0.2961833509        2.4110168255
 C         -2.8259837852       -0.6078534290        2.0602867641
 C         -3.5826831498       -0.2197581391        0.8109813767
 C         -4.9694369824       -0.1969326785        0.8159810298
 C         -5.6844759380        0.1781797838       -0.3086728160
 C         -5.0095357670        0.5556234474       -1.4577387498
 C         -3.6287130572        0.5434843144       -1.4765984533
 C         -2.8977740269        0.1434900546       -0.3577702454
 C         -1.4316531509        0.1141030201       -0.4274636709
 C         -0.7005447116        1.3305277890       -0.5958492597
 C         -1.3394738830        2.5679568297       -0.6774092404
 C         -0.6097504739        3.7512846706       -0.8190459445
 C          0.7663400747        3.7134138351       -0.8530775201
 C          1.4323341329        2.4918337496       -0.7373512247
 C          0.7254396194        1.2939558352       -0.6104211377
 C          1.3972547189        0.0516210821       -0.4530364047
 C          2.8694358342        0.0235096342       -0.3726202142
 C          3.6337767639        0.0558061342       -1.5344427112
 C          5.0148183490        0.0265670828       -1.4699301731
 C          5.6468438840       -0.0296055089       -0.2392168532
 C          4.8932717027       -0.0511693287        0.9218400208
 C          3.5075473487       -0.0233713043        0.8709781509
 C          2.6800902802       -0.0483762377        2.1340765241
 O          2.1818544255       -1.3383711782        2.4338052202
 C          0.6715194050       -1.1664895438       -0.3700678231
 C          1.3279457795       -2.4017813138       -0.3113027403
 C          0.6079384388       -3.5964159912       -0.2375316964
 C         -0.7685175152       -3.5712352883       -0.2552793595
 C         -1.4465085100       -2.3507332490       -0.3334324525
 C         -0.7526461381       -1.1405292539       -0.3661876430
 H         -1.2647210306        0.4042678434        1.6109028181
 H         -3.5068770390       -0.6351042011        2.9130324917
 H         -2.3957885919       -1.6112784622        1.9257493039
 H         -5.4958600893       -0.4704153487        1.7190100461
 H         -6.7630714864        0.1861514103       -0.2833372948
 H         -5.5571961826        0.8580104791       -2.3372045225
 H         -3.0935462652        0.8209123607       -2.3731265207
 H         -2.4146501937        2.6118100432       -0.6214911614
 H         -1.1347008348        4.6912256652       -0.8920127214
 H          1.3383105967        4.6224507133       -0.9577897117
 H          2.5102220667        2.4656359887       -0.7415651480
 H          3.1322136192        0.0988912379       -2.4903874512
 H          5.5958246606        0.0479957033       -2.3794122817
 H          6.7242815955       -0.0517591414       -0.1826991860
 H          5.3832468103       -0.0871377966        1.8837150237
 H          1.8409272220        0.6526618085        2.0326530532
 H          3.2869751329        0.2436529539        2.9932100070
 H          1.7239755348       -1.6353685248        1.6327264791
 H          2.4052924709       -2.4282057546       -0.3383610576
 H          1.1394259563       -4.5336604163       -0.1787555647
 H         -1.3339686155       -4.4895714353       -0.2137618976
 H         -2.5233001453       -2.3428615545       -0.3789362810
  52
  -78.8990204606000       8.023192532664725E-002 !
 O         -1.7520498567       -0.2928595102        2.3978173323
 C         -2.7276965343        0.6779659386        2.0858636209
 C         -3.5367042822        0.3561835042        0.8510534715
 C         -4.9223164723        0.3968432288        0.8941566006
 C         -5.6832684285        0.0870999383       -0.2202795481
 C         -5.0573259168       -0.2861860626       -1.3979958860
 C         -3.6782629938       -0.3388394444       -1.4543871171
 C         -2.9009497154       -0.0078247421       -0.3448422749
 C         -1.4366479054       -0.0520982186       -0.4453347967
 C         -0.6939624093        1.1649177621       -0.3809673812
 C         -1.3249004543        2.4088591594       -0.3328057478
 C         -0.5845600141        3.5933289757       -0.2749457127
 C          0.7912702727        3.5489398708       -0.2954993955
 C          1.4481204351        2.3179103311       -0.3737364384
 C          0.7289056510        1.1170943947       -0.4017339832
 C          1.3910441759       -0.1382516023       -0.4732960391
 C          2.8580404820       -0.1845671224       -0.3546629684
 C          3.6492897099       -0.3649727996       -1.4854595562
 C          5.0278388128       -0.3955922141       -1.3835737360
 C          5.6315535996       -0.2540856950       -0.1454338531
 C          4.8512411635       -0.0917672471        0.9865060582
 C          3.4675628303       -0.0577461343        0.8984237928
 C          2.6162770592        0.1028108009        2.1364151326
 O          2.2526341484        1.4472009006        2.3833847762
 C          0.6548388434       -1.3417623871       -0.6519871318
 C          1.2950911173       -2.5754955040       -0.7862069500
 C          0.5642934988       -3.7565063982       -0.9278426499
 C         -0.8121409242       -3.7193316962       -0.9085956423
 C         -1.4765018186       -2.5007134715       -0.7501340054
 C         -0.7713809120       -1.3016000783       -0.6424435460
 H         -1.2461525766       -0.4244920419        1.5813996828
 H         -2.2392409342        1.6546270315        1.9536017773
 H         -3.3840607394        0.7343320200        2.9563055477
 H         -5.4113815187        0.6684005626        1.8183037333
 H         -6.7601843799        0.1278109234       -0.1656981412
 H         -5.6416969771       -0.5352621602       -2.2707110369
 H         -3.1804881248       -0.6140419001       -2.3728308366
 H         -2.4015008100        2.4550198934       -0.3511634589
 H         -1.1012229693        4.5393341227       -0.2229550803
 H          1.3709684360        4.4583991516       -0.2610086627
 H          2.5240799041        2.2897861083       -0.4355918384
 H          3.1703373326       -0.4703915329       -2.4482975749
 H          5.6293621704       -0.5300732220       -2.2698660615
 H          6.7070887942       -0.2774811813       -0.0598441975
 H          5.3178486160        0.0063356367        1.9556140685
 H          3.1687693647       -0.2223571091        3.0203495552
 H          1.7098184079       -0.5083694136        2.0353636753
 H          1.8245336755        1.7544647085        1.5683715418
 H          2.3725121486       -2.6104414373       -0.7765174364
 H          1.0866767850       -4.6940650873       -1.0400276808
 H         -1.3871812055       -4.6275383752       -1.0029706483
 H         -2.5527795393       -2.4864606943       -0.7005690446
  52
  -78.8990163089000       7.988021495734419E-002 !
 O         -1.9203276367        0.3939206665        2.4506853058
 C         -2.8706861651       -0.5791646985        2.0732103673
 C         -3.6022102880       -0.2396480830        0.7966070485
 C         -4.9883644680       -0.2319333922        0.7605293385
 C         -5.6715195874        0.1027399274       -0.3962941037
 C         -4.9651146276        0.4547023951       -1.5343128035
 C         -3.5838567592        0.4585505267       -1.5109340128
 C         -2.8851529594        0.0987540749       -0.3594462402
 C         -1.4158549267        0.0743598979       -0.3839915695
 C         -0.6843222471        1.2909339572       -0.5350313453
 C         -1.3320824261        2.5244522049       -0.6224810836
 C         -0.6105472226        3.7143479963       -0.7287534330
 C          0.7662626461        3.6865076033       -0.7151725735
 C          1.4382198176        2.4684953030       -0.5984783177
 C          0.7414706849        1.2613180236       -0.5268333538
 C          1.4201012672        0.0129444674       -0.3796956359
 C          2.8876153501       -0.0236345601       -0.3514091051
 C          3.6022748398        0.3664733816       -1.4842926903
 C          4.9823090789        0.3186202735       -1.5073570876
 C          5.6744257179       -0.1104956081       -0.3868929090
 C          4.9772840758       -0.4779144776        0.7515647150
 C          3.5914940177       -0.4405546532        0.7877543191
 C          2.8521946948       -0.8097524289        2.0520060439
 O          1.9184247869        0.1658965424        2.4624493356
 C          0.6862378762       -1.2101209387       -0.3281433623
 C          1.3320172293       -2.4481842918       -0.3414235720
 C          0.6081131131       -3.6415909860       -0.3040118878
 C         -0.7689653545       -3.6107617255       -0.2888301889
 C         -1.4389290757       -2.3864092707       -0.3158527681
 C         -0.7375394623       -1.1784809400       -0.3213515010
 H         -1.3747680675        0.5415327518        1.6638052851
 H         -3.5769445845       -0.6484670731        2.9024065938
 H         -2.3700751927       -1.5511185611        1.9568845515
 H         -5.5389505408       -0.4845990573        1.6546465749
 H         -6.7505836863        0.1018963384       -0.4045532781
 H         -5.4887923372        0.7277257986       -2.4382596797
 H         -3.0244780462        0.7201750188       -2.3975008993
 H         -2.4085146546        2.5561439455       -0.5972356961
 H         -1.1401178404        4.6512033884       -0.8080107097
 H          1.3345710515        4.6013489111       -0.7826214556
 H          2.5141231601        2.4590658562       -0.5533990734
 H          3.0540243833        0.6858908899       -2.3584692199
 H          5.5162833250        0.6159864612       -2.3969333140
 H          6.7526020540       -0.1508057684       -0.3951853858
 H          5.5175041441       -0.7926402573        1.6325395009
 H          3.5573535458       -0.9182519201        2.8780320707
 H          2.3354710576       -1.7690266043        1.9047658087
 H          1.3730933381        0.3460850607        1.6819052109
 H          2.4083159864       -2.4800684943       -0.3936097289
 H          1.1359649910       -4.5829869206       -0.2977662840
 H         -1.3380611618       -4.5272872173       -0.2656395460
 H         -2.5159054484       -2.3692242529       -0.3439220310
  52
  -78.8976788784000       1.939986570460996E-002 !
 O         -2.2587050843       -1.6532955020        2.2386761522
 C         -2.6363071865       -0.2974609999        2.1041581184
 C         -3.4881723715       -0.0424067536        0.8833765173
 C         -4.8708929223        0.0100549352        0.9753071814
 C         -5.6474700379        0.2589883238       -0.1434276247
 C         -5.0409816390        0.4687785721       -1.3703123871
 C         -3.6630857597        0.4171666574       -1.4761806998
 C         -2.8766437390        0.1503991044       -0.3599812688
 C         -1.4097593250        0.0813297156       -0.4806818801
 C         -0.6459304102        1.2797324481       -0.5190218174
 C         -1.2480188043        2.5387808815       -0.5079788569
 C         -0.4801495177        3.7065663077       -0.5553844967
 C          0.8928429018        3.6283759065       -0.6148186116
 C          1.5225852178        2.3797088064       -0.6068716041
 C          0.7773390219        1.1970647321       -0.5418743438
 C          1.4100806609       -0.0738594867       -0.4711275664
 C          2.8784107313       -0.1420271746       -0.3566022873
 C          3.6618645333       -0.3686525618       -1.4830850502
 C          5.0404407684       -0.4176666339       -1.3825218320
 C          5.6493485091       -0.2447443410       -0.1512407934
 C          4.8753951631       -0.0325045399        0.9769437568
 C          3.4923381709        0.0172145635        0.8899557679
 C          2.6396720888        0.2490404323        2.1142273117
 O          2.2360803558        1.5978793740        2.2500972275
 C          0.6468705440       -1.2720935250       -0.4903787965
 C          1.2494843243       -2.5304961207       -0.4522826472
 C          0.4827727527       -3.6994873352       -0.4929313009
 C         -0.8886161197       -3.6229254608       -0.5778352014
 C         -1.5192327117       -2.3739311722       -0.5959876996
 C         -0.7759895343       -1.1901976332       -0.5300947187
 H         -1.8571724689       -1.9038405061        1.3915152495
 H         -1.7362238798        0.3307954610        2.0532315809
 H         -3.1903540881       -0.0517122562        3.0125827257
 H         -5.3393641449       -0.1416356271        1.9366308124
 H         -6.7224791852        0.2960773886       -0.0559266487
 H         -5.6393925514        0.6716325561       -2.2456559032
 H         -3.1818881637        0.5752964055       -2.4306780470
 H         -2.3231360105        2.6064642390       -0.4624516193
 H         -0.9738959003        4.6659215874       -0.5483276223
 H          1.4927732994        4.5239050412       -0.6624408601
 H          2.5984112964        2.3234983489       -0.6605225026
 H          3.1783285635       -0.4998505507       -2.4404386514
 H          5.6372855267       -0.5901336757       -2.2653785731
 H          6.7247613200       -0.2799779942       -0.0679466360
 H          5.3465301855        0.0938880704        1.9406028903
 H          3.1999576979        0.0123052952        3.0211055926
 H          1.7514078544       -0.3956839309        2.0635641631
 H          1.8381403147        1.8444925766        1.4006517849
 H          2.3239825696       -2.5964802743       -0.3910827339
 H          0.9770701395       -4.6581091267       -0.4636863477
 H         -1.4879453232       -4.5188461843       -0.6249585017
 H         -2.5936451145       -2.3190681950       -0.6739616718
  52
  -78.8967934769000       7.601448670450909E-003 !
 O         -2.1117233815       -1.4892920139        2.2689010690
 C         -2.5476197707       -0.1523593798        2.1085106569
 C         -3.4434723101        0.0281610094        0.9066330226
 C         -4.8226818533        0.0790560899        1.0403979019
 C         -5.6365428247        0.2404688201       -0.0678165649
 C         -5.0722142912        0.3586356697       -1.3264884158
 C         -3.6977927267        0.3088007409       -1.4738988683
 C         -2.8745837152        0.1363727855       -0.3667297038
 C         -1.4092327698        0.0747274787       -0.5192491713
 C         -0.6539031884        1.2777728040       -0.5576485647
 C         -1.2653268125        2.5322322749       -0.5444677861
 C         -0.5050161998        3.7055933964       -0.5801000099
 C          0.8688774374        3.6374776745       -0.6263488192
 C          1.5075041632        2.3933231739       -0.6227792690
 C          0.7699501287        1.2052176318       -0.5783817620
 C          1.4099072074       -0.0624618395       -0.5159831961
 C          2.8753497706       -0.1284205171       -0.3641360447
 C          3.6971385439       -0.2939986620       -1.4731875128
 C          5.0710399464       -0.3602747545       -1.3263090460
 C          5.6359831640       -0.2644118638       -0.0664049187
 C          4.8235548715       -0.1060038391        1.0433267625
 C          3.4449875618       -0.0393463662        0.9102401615
 C          2.5504577050        0.1379375408        2.1134207502
 O          2.1023145037        1.4714125829        2.2686114561
 C          0.6545644733       -1.2657036095       -0.5459645931
 C          1.2663613103       -2.5199789477       -0.5233486877
 C          0.5065192103       -3.6936570040       -0.5542233043
 C         -0.8671357020       -3.6259239388       -0.6066620039
 C         -1.5060554718       -2.3817616869       -0.6133241909
 C         -0.7689421963       -1.1933291113       -0.5715920041
 H         -1.7403960765       -1.7532067198        1.4131176014
 H         -1.6749046689        0.5072262036        2.0122906948
 H         -3.0836113954        0.0981988813        3.0258615878
 H         -5.2589540465       -0.0076455124        2.0245478235
 H         -6.7084327090        0.2781522324        0.0518753044
 H         -5.7011431017        0.4905837691       -2.1936987577
 H         -3.2488848747        0.3996041875       -2.4524714954
 H         -2.3411283930        2.5916165417       -0.5045305946
 H         -1.0055488466        4.6613364457       -0.5711862735
 H          1.4628024087        4.5376634224       -0.6591985521
 H          2.5843256879        2.3437148780       -0.6564723146
 H          3.2477937036       -0.3675262203       -2.4533346656
 H          5.6985115949       -0.4880222855       -2.1953260389
 H          6.7072465766       -0.3159330941        0.0531269555
 H          5.2604892961       -0.0367446942        2.0288600615
 H          3.0911551089       -0.1032676479        3.0306809322
 H          1.6836511881       -0.5306161598        2.0227759183
 H          1.7312380114        1.7306204618        1.4116161300
 H          2.3420698409       -2.5785556973       -0.4803791925
 H          1.0071853000       -4.6492990036       -0.5389190464
 H         -1.4606752531       -4.5262854114       -0.6383837808
 H         -2.5825673608       -2.3331937515       -0.6549322765
