  106
       -158.42843272
 C          0.5112931196        1.8860298158        4.4031833946
 C         -0.1487388272        0.7356512939        4.8009124373
 C         -1.2239556336        0.2623264986        4.0728374551
 C         -1.6617614500        0.9346197103        2.9345857268
 C         -2.7612899578        0.4130549452        2.1105140847
 C         -3.6361781309        1.2747513433        1.4573294060
 C         -4.6178931984        0.7861493844        0.6036833558
 C         -5.5199007345        1.7100733056       -0.0991852176
 C         -6.8753885712        1.4227417344       -0.2350911177
 C         -7.7156260909        2.2940677144       -0.9032878872
 C         -7.2133537964        3.4617488173       -1.4528331171
 C         -5.8650342328        3.7538640798       -1.3292246689
 C         -5.0247676616        2.8869795785       -0.6562042935
 C         -4.6955165663       -0.5830626853        0.3714734785
 C         -3.8098678614       -1.4578054179        0.9879957750
 C         -3.7830962331       -2.8759610994        0.5911973621
 C         -4.9610318699       -3.6073599251        0.5284005112
 C         -4.9569651702       -4.9465522977        0.1786384201
 C         -3.7556932272       -5.5751887920       -0.1132668625
 C         -2.5746100403       -4.8645345590       -0.0566136748
 C         -2.5589154845       -3.5062626718        0.2749278934
 C         -1.2952723357       -2.7875033362        0.3436614147
 C         -0.2412626860       -3.3289435795        1.0896771193
 C          0.8318264251       -2.5672936695        1.4691409850
 C          0.9147448652       -1.1887866560        1.1062510211
 C          1.9106311212       -0.3479522760        1.5971002231
 C          2.0016527879        0.9702468389        1.1759115058
 C          1.1369493528        1.4717163469        0.2032990986
 C          1.2949294282        2.7879678819       -0.3630833132
 C          2.5582278591        3.5069361862       -0.2935794630
 C          2.5721021970        4.8670452314        0.0313228279
 C          3.7523894444        5.5787369155        0.0888285923
 C          4.9553314571        4.9493903007       -0.1949625880
 C          4.9614755030        3.6085009871       -0.5378638543
 C          3.7841826245        2.8761305090       -0.6017575518
 C          3.8140140741        1.4561898567       -0.9918233290
 C          2.8934864349        0.9496201480       -1.9032917469
 C          2.7747912646       -0.4196817612       -2.1143432726
 C          1.6811234744       -0.9433843357       -2.9448063922
 C          1.2566067867       -0.2774361841       -4.0918180292
 C          0.1837729837       -0.7495674909       -4.8241064111
 C         -0.4868816124       -1.8921981298       -4.4216936278
 C         -0.0702250936       -2.5659433276       -3.2864822375
 C          1.0054684469       -2.0983055986       -2.5564931202
 C          3.6434429820       -1.2785707602       -1.4495207596
 C          4.6177490497       -0.7860376634       -0.5895361845
 C          5.5089511092       -1.7071525715        0.1308028102
 C          5.0008864244       -2.8742536933        0.6967780600
 C          5.8285105292       -3.7372922134        1.3900226574
 C          7.1771597859       -3.4514600160        1.5245307822
 C          7.6924422228       -2.2942607701        0.9649988159
 C          6.8645875132       -1.4262527122        0.2771247332
 C          4.6950253411        0.5842612138       -0.3644729587
 C          0.2405221863        3.3295472620       -1.1086343913
 C         -0.8341705750        2.5690187005       -1.4855868768
 C         -0.9175477105        1.1905879231       -1.1224873260
 C         -1.9153453673        0.3506984677       -1.6111021539
 C         -2.0057228764       -0.9678778052       -1.1910494318
 C         -1.1385738210       -1.4705188192       -0.2211772045
 C         -0.0577792312       -0.6654498511        0.2176753319
 C          0.0560436614        0.6666742385       -0.2354733861
 C         -2.8827069201       -0.9552884143        1.8952468860
 C         -0.9951301152        2.0960425014        2.5497949413
 C          0.0825519639        2.5652476263        3.2757820213
 H          1.3558147263        2.2507150074        4.9691448912
 H          0.1769959887        0.2043031905        5.6835905530
 H         -1.7400727627       -0.6286780109        4.3996570515
 H         -3.5718804818        2.3375669680        1.6356187429
 H         -7.2737244425        0.5198636588        0.2047984151
 H         -8.7673125968        2.0638412092       -0.9934039387
 H         -7.8700389518        4.1416809324       -1.9750318155
 H         -5.4681334425        4.6617238551       -1.7604854497
 H         -3.9705109488        3.1079770178       -0.5744718645
 H         -5.4056753799       -0.9614645078       -0.3493759896
 H         -5.8920733314       -3.1223935986        0.7854017002
 H         -5.8837318770       -5.4992396106        0.1410201835
 H         -3.7437338840       -6.6199886807       -0.3872766397
 H         -1.6423748899       -5.3510874650       -0.3059274230
 H         -0.3296927912       -4.3449956283        1.4503391223
 H          1.6058452082       -2.9823272050        2.0983314372
 H          2.6283836422       -0.7342117481        2.3065468548
 H          2.7652261504        1.6107983487        1.5903336070
 H          1.6387197366        5.3542763194        0.2748417743
 H          3.7386867863        6.6249259702        0.3574118513
 H          5.8814324057        5.5031323163       -0.1566148809
 H          5.8937531803        3.1225004899       -0.7883683952
 H          2.2262159852        1.6261993400       -2.4150100652
 H          1.7809290391        0.6079086253       -4.4210176904
 H         -0.1321773599       -0.2232365451       -5.7133222764
 H         -1.3298469081       -2.2555857949       -4.9907897709
 H         -0.5911908358       -3.4558563060       -2.9636582199
 H          1.3069734217       -2.6164794956       -1.6587697176
 H          3.5798554786       -2.3423728472       -1.6223502045
 H          3.9462456088       -3.0896685782        0.6063323284
 H          5.4214640146       -4.6369085760        1.8290297555
 H          7.8234860463       -4.1273007939        2.0647003645
 H          8.7439235979       -2.0676248562        1.0661757710
 H          7.2722908160       -0.5293843782       -0.1665106150
 H          5.3996597001        0.9661088825        0.3600033395
 H          0.3293965425        4.3450706543       -1.4706093057
 H         -1.6093303238        2.9847606237       -2.1129198836
 H         -2.6347446490        0.7379295337       -2.3183785710
 H         -2.7704165780       -1.6078577748       -1.6043427901
 H         -2.2125105960       -1.6343567432        2.3996592663
 H         -1.3043298613        2.6178608542        1.6568355614
 H          0.5963966962        3.4600084078        2.9549368515
