  55
        -91.10146104
 C         -4.9488430573        3.3381841146        1.7968438933
 C         -3.6022885302        3.0767537259        1.9488008086
 C         -3.0403946947        1.9388798320        1.3903024904
 C         -3.8149256221        1.0450418959        0.6615973802
 C         -5.1873459918        1.3034123281        0.5415213688
 C         -5.7419518184        2.4417929177        1.0968351030
 O         -6.0477557663        0.4496304802       -0.1029266474
 C         -5.5117477704       -0.6757004322       -0.6754219583
 C         -6.3810640960       -1.5110098482       -1.3522555468
 C         -5.9067296729       -2.6511428226       -1.9840809822
 C         -4.5560701541       -2.9337640738       -1.9536151084
 C         -3.6802989653       -2.0993907179       -1.2755869594
 C         -4.1449275831       -0.9757477599       -0.6028668718
 N         -3.2880083113       -0.1192322564        0.0929124734
 C         -1.9319397471       -0.4621707862        0.2580327224
 C         -1.6122206469       -1.6627554727        0.9392263411
 C         -0.3159251315       -2.0307656497        1.1386030418
 C          0.7332011397       -1.2118365340        0.6638901401
 N          2.0062361241       -1.5754631293        0.8571054979
 C          2.9555934440       -0.7807454724        0.3959480261
 C          4.3386054481       -1.1562073522        0.5862495113
 C          4.6381805243       -2.3492687599        1.2501350395
 C          5.9430254602       -2.7373686020        1.4434322372
 C          6.9717920721       -1.9302391424        0.9709896733
 C          6.6901676423       -0.7511312505        0.3162187016
 C          5.3725142581       -0.3286169134        0.1047738781
 C          5.0484150144        0.9133514417       -0.5835932345
 C          6.0309268660        1.7801281271       -1.0767012459
 C          5.6993678193        2.9490262979       -1.7266288507
 C          4.3666999499        3.3003302010       -1.9101835848
 C          3.3788829025        2.4697687839       -1.4352280538
 C          3.7017394172        1.2813531238       -0.7741341068
 C          2.6372088688        0.4329210717       -0.2855341895
 N          1.3849303425        0.8023582834       -0.4793550100
 C          0.4139607078        0.0003190309       -0.0182369320
 C         -0.9349269812        0.3530427581       -0.2164190102
 H         -5.3899822008        4.2236099239        2.2263160419
 H         -2.9736799400        3.7535203770        2.5066002725
 H         -1.9898129336        1.7417912071        1.5336795791
 H         -6.8009486686        2.6021795136        0.9774866674
 H         -7.4266803910       -1.2479197571       -1.3771043798
 H         -6.5927366110       -3.2994685305       -2.5055610286
 H         -4.1682700169       -3.8046599407       -2.4593811464
 H         -2.6246762987       -2.3219253053       -1.2753023534
 H         -2.4218990731       -2.2733394954        1.3116253128
 H         -0.0581497882       -2.9371142464        1.6637978066
 H          3.8141255214       -2.9498801012        1.6017725576
 H          6.1693943330       -3.6601945863        1.9561861810
 H          8.0000854602       -2.2280309666        1.1160897027
 H          7.5148552290       -0.1523101193       -0.0361227745
 H          7.0753728190        1.5425472286       -0.9528968188
 H          6.4824877863        3.5957713542       -2.0949356459
 H          4.1124910049        4.2178901069       -2.4193817202
 H          2.3343446059        2.7091674304       -1.5580189479
 H         -1.1575511927        1.2657039107       -0.7473160833
  55
        -91.10132411
 C         -4.9361212066        3.4523054969       -1.5560678477
 C         -3.5889906696        3.2005533997       -1.7173558995
 C         -3.0315284939        2.0254422296       -1.2374125089
 C         -3.8102817048        1.0825121713       -0.5781422811
 C         -5.1844448577        1.3307557828       -0.4559734628
 C         -5.7347093695        2.5070083166       -0.9312187369
 O         -6.0525946769        0.4302601597        0.1090242745
 C         -5.5210149584       -0.7277482768        0.6158308591
 C         -6.3984449434       -1.6089279559        1.2202415837
 C         -5.9298814068       -2.7838088240        1.7888903954
 C         -4.5765933533       -3.0544917086        1.7716837611
 C         -3.6931965877       -2.1746170087        1.1654376197
 C         -4.1515625151       -1.0159161556        0.5498845720
 N         -3.2869861503       -0.1168686999       -0.0815150787
 C         -1.9316016691       -0.4531201129       -0.2573638186
 C         -1.6126625139       -1.6334579512       -0.9743965311
 C         -0.3174416464       -2.0039580343       -1.1743366503
 C          0.7331856838       -1.2024995825       -0.6738122783
 N          2.0049425388       -1.5760220060       -0.8546174417
 C          2.9559699628       -0.7874649184       -0.3862475388
 C          4.3371575138       -1.1836492576       -0.5446392437
 C          4.6323373780       -2.4099920727       -1.1469516025
 C          5.9350976416       -2.8235375849       -1.2968401442
 C          6.9659180895       -2.0094495412       -0.8411113203
 C          6.6886859820       -0.7963981580       -0.2494320972
 C          5.3734056892       -0.3461076433       -0.0862306292
 C          5.0534907714        0.9331530373        0.5321749297
 C          6.0393008663        1.8310891409        0.9582085845
 C          5.7121348745        3.0338592827        1.5454834380
 C          4.3808164739        3.3878494977        1.7330932977
 C          3.3897736059        2.5285615443        1.3200810254
 C          3.7079936406        1.3076972472        0.7185345367
 C          2.6406330223        0.4388886411        0.2735187176
 N          1.3890286970        0.8058130543        0.4768680800
 C          0.4160634122        0.0009740552        0.0245483292
 C         -0.9321117990        0.3468328614        0.2388746681
 H         -5.3732680345        4.3683533971       -1.9206132684
 H         -2.9559439691        3.9149574178       -2.2206242407
 H         -1.9804738491        1.8392134807       -1.3889886897
 H         -6.7953791393        2.6579712328       -0.8093332957
 H         -7.4457358339       -1.3533993296        1.2390659050
 H         -6.6222453860       -3.4688223247        2.2521266481
 H         -4.1928396521       -3.9514537821        2.2329017129
 H         -2.6362270556       -2.3899358530        1.1769496642
 H         -2.4225361275       -2.2290112063       -1.3700964946
 H         -0.0614470174       -2.8990525199       -1.7193631390
 H          3.8065625442       -3.0166536703       -1.4839371698
 H          6.1581300393       -3.7728777619       -1.7602451746
 H          7.9923154015       -2.3284714410       -0.9497924493
 H          7.5145062249       -0.1945066820        0.0947700373
 H          7.0826922274        1.5931927899        0.8261846174
 H          6.4975498817        3.7054735305        1.8603095373
 H          4.1300958017        4.3313260417        2.1943806374
 H          2.3461648330        2.7719038553        1.4430668748
 H         -1.1516458133        1.2441226675        0.7965868763
  55
        -91.10128680
 C         -4.9312684729        3.2035635849        2.0458889164
 C         -3.5855781903        2.9269076739        2.1756450215
 C         -3.0292896369        1.8311167957        1.5336260565
 C         -3.8097500949        0.9961841529        0.7442184522
 C         -5.1804657318        1.2703567007        0.6413196770
 C         -5.7292074548        2.3665787394        1.2804140873
 O         -6.0429035784        0.4725267611       -0.0691735624
 C         -5.5111229990       -0.6120155410       -0.7201384043
 C         -6.3804424909       -1.3878333081       -1.4637740748
 C         -5.9095683716       -2.4844542745       -2.1711112111
 C         -4.5630153587       -2.7854810221       -2.1436420788
 C         -3.6865918799       -2.0102386785       -1.3997243005
 C         -4.1476034060       -0.9287998385       -0.6592776086
 N         -3.2888923219       -0.1271698606        0.0952426136
 C         -1.9321236497       -0.4825109443        0.2366452517
 C         -1.6115451050       -1.7024173034        0.8808906037
 C         -0.3140919372       -2.0686864431        1.0778963587
 C          0.7328206776       -1.2321155131        0.6300585871
 N          2.0067849694       -1.5761686762        0.8527243233
 C          2.9542743769       -0.7736178783        0.4020479649
 C          4.3373611184       -1.1023950660        0.6647318605
 C          4.6384495648       -2.2304899615        1.4331855217
 C          5.9429165219       -2.5568674562        1.7208169956
 C          6.9693638117       -1.7510293163        1.2412785591
 C          6.6863764201       -0.6392505765        0.4780615997
 C          5.3693882310       -0.2840263316        0.1639228328
 C          5.0438350447        0.8823944678       -0.6454054595
 C          6.0253690527        1.6962511937       -1.2230742762
 C          5.6922947387        2.7974908280       -1.9813675744
 C          4.3593439486        3.1321753679       -2.1913475829
 C          3.3724080668        2.3488783614       -1.6405227118
 C          3.6966686497        1.2259993770       -0.8740311687
 C          2.6336538356        0.4105129106       -0.3291961163
 N          1.3808751562        0.7763115176       -0.5252679888
 C          0.4116085222       -0.0164621529       -0.0450387634
 C         -0.9380290286        0.3430926594       -0.2246863392
 H         -5.3682126206        4.0568009714        2.5402163198
 H         -2.9535502929        3.5584943985        2.7807266147
 H         -1.9789435107        1.6198334391        1.6571633257
 H         -6.7873274243        2.5433388144        1.1711768334
 H         -7.4232720729       -1.1140308781       -1.4796939920
 H         -6.5958613996       -3.0857872054       -2.7461777577
 H         -4.1788404130       -3.6231543992       -2.7051613983
 H         -2.6332865413       -2.2441456608       -1.4008600565
 H         -2.4206464679       -2.3268242721        1.2308752687
 H         -0.0538170627       -2.9851628811        1.5839430991
 H          3.8158868457       -2.8282907731        1.7931882904
 H          6.1705063157       -3.4276592848        2.3172236604
 H          7.9968729524       -1.9957707834        1.4679119616
 H          7.5087318270       -0.0363063090        0.1276295593
 H          7.0698175780        1.4659250194       -1.0864361938
 H          6.4744565630        3.4029907524       -2.4156757080
 H          4.1041091593        3.9969984728       -2.7851986561
 H          2.3276198894        2.5737174692       -1.7867110310
 H         -1.1647648282        1.2691220189       -0.7301674634
  55
        -91.09913337
 C         -5.0499022025        3.6390894382        0.9323837310
 C         -3.7135368052        3.4400592412        1.2138334745
 C         -3.1191868548        2.2110821478        0.9720229890
 C         -3.8472326958        1.1581013271        0.4310145557
 C         -5.2170786767        1.3551210452        0.2060614550
 C         -5.8039369757        2.5851688436        0.4409145130
 O         -6.0492890007        0.3529289635       -0.2249077614
 C         -5.4757536216       -0.8514888304       -0.5388932975
 C         -6.3143834686       -1.8323805096       -1.0364599596
 C         -5.8030622161       -3.0622614677       -1.4209030781
 C         -4.4435102722       -3.2856056456       -1.3398932445
 C         -3.6000161502       -2.3051680569       -0.8412828772
 C         -4.1031827695       -1.0897746080       -0.3906591029
 N         -3.2829920027       -0.0934439810        0.1541310022
 C         -1.9259922364       -0.3715525200        0.3938615420
 C         -1.6023453215       -1.4963805284        1.1963569693
 C         -0.3089875461       -1.8763026419        1.3882753733
 C          0.7384405719       -1.1258105156        0.8090963643
 N          2.0014999855       -1.5592666880        0.8812739151
 C          2.9492482571       -0.7950796841        0.3707981412
 C          4.3044737447       -1.2917945191        0.2985666766
 C          4.5649293624       -2.6315377348        0.5978107788
 C          5.8328290177       -3.1467827888        0.4589705547
 C          6.8608043867       -2.3232046532        0.0140244322
 C          6.6207201365       -0.9953337142       -0.2665626273
 C          5.3444156065       -0.4406304189       -0.1237616652
 C          5.0636474689        0.9611082069       -0.4018271632
 C          6.0764951847        1.9005739613       -0.6225281137
 C          5.7841281916        3.2194124703       -0.8958114010
 C          4.4636711833        3.6482097296       -0.9686426899
 C          3.4468952907        2.7489986052       -0.7442074725
 C          3.7302514094        1.4133720311       -0.4481533319
 C          2.6478719823        0.5060491246       -0.1368504565
 N          1.3997368372        0.8997406234       -0.3004949425
 C          0.4219010711        0.0793894366        0.1122284998
 C         -0.9251729673        0.4098264115       -0.1307410233
 H         -5.5137133172        4.5973649651        1.1048462706
 H         -3.1174532532        4.2396743017        1.6258248294
 H         -2.0798296656        2.0711807008        1.2210910215
 H         -6.8578370202        2.6919090910        0.2393071910
 H         -7.3664050837       -1.6102515642       -1.1168215872
 H         -6.4652084172       -3.8259350886       -1.7969802966
 H         -4.0227597461       -4.2236923420       -1.6675637428
 H         -2.5381052733       -2.4903177676       -0.8084991208
 H         -2.4102682768       -2.0535109545        1.6478559768
 H         -0.0543075935       -2.7473303176        1.9715814504
 H          3.7394765590       -3.2460971962        0.9215617443
 H          6.0279954577       -4.1855602782        0.6799799393
 H          7.8548253462       -2.7257379682       -0.1163967864
 H          7.4378576252       -0.3869140634       -0.6207836396
 H          7.1114672285        1.6033199485       -0.5610419571
 H          6.5883552120        3.9238774627       -1.0510165106
 H          4.2410589287        4.6819672017       -1.1870786248
 H          2.4115205844        3.0503923249       -0.7750731409
 H         -1.1392867014        1.2730906519       -0.7413396598
  55
        -91.09895198
 C         -4.9523456058        3.6878908382       -0.7510314461
 C         -3.6395007328        3.4495728962       -1.1040425490
 C         -3.0810678199        2.1932115981       -0.9271933862
 C         -3.8207668760        1.1514406389       -0.3798827220
 C         -5.1705958293        1.3893786229       -0.0866312346
 C         -5.7215850865        2.6466272440       -0.2563377867
 O         -6.0173614602        0.4036041316        0.3521401503
 C         -5.4813188726       -0.8394434942        0.5673665489
 C         -6.3420577687       -1.8147611164        1.0371787087
 C         -5.8701455163       -3.0853549832        1.3279292732
 C         -4.5250326835       -3.3567188460        1.1816390467
 C         -3.6592851779       -2.3819194444        0.7104008600
 C         -4.1256118367       -1.1218888468        0.3523163582
 N         -3.2869254149       -0.1259505766       -0.1645604976
 C         -1.9307371245       -0.4066471257       -0.4053640666
 C         -1.5998708091       -1.5010217329       -1.2453653850
 C         -0.3035637490       -1.8702230126       -1.4429518733
 C          0.7393072739       -1.1343971409       -0.8376992209
 N          2.0063772273       -1.5544799457       -0.9242839841
 C          2.9487001583       -0.7941199643       -0.3985988310
 C          4.3097863103       -1.2771050732       -0.3422532178
 C          4.5842674503       -2.6082956707       -0.6658271925
 C          5.8583682807       -3.1116700596       -0.5395910748
 C          6.8785026882       -2.2849920577       -0.0825278097
 C          6.6247875691       -0.9646500755        0.2209293880
 C          5.3422776025       -0.4218070959        0.0902621424
 C          5.0483898226        0.9725152897        0.3911164746
 C          6.0521215396        1.9215898330        0.6117813792
 C          5.7462852899        3.2331153060        0.9052138354
 C          4.4215087383        3.6438851499        1.0002466582
 C          3.4133840661        2.7348103609        0.7763381031
 C          3.7103175250        1.4072244967        0.4585413748
 C          2.6366523173        0.4917189372        0.1415064634
 N          1.3858353139        0.8657539141        0.3258344240
 C          0.4145104741        0.0463661311       -0.1037184862
 C         -0.9339759865        0.3592074150        0.1497796414
 H         -5.3870238272        4.6675648687       -0.8711364119
 H         -3.0339766672        4.2394604905       -1.5210033137
 H         -2.0599132218        2.0238822355       -1.2284244114
 H         -6.7601510218        2.7848349201       -0.0013545197
 H         -7.3795732055       -1.5548010443        1.1731993966
 H         -6.5497641562       -3.8429531173        1.6845522551
 H         -4.1321813199       -4.3286423380        1.4377361087
 H         -2.6078043741       -2.6072220455        0.6306056959
 H         -2.4025324175       -2.0409538614       -1.7260969795
 H         -0.0437283832       -2.7194140908       -2.0555558905
 H          3.7649619445       -3.2263237478       -0.9984321471
 H          6.0645999742       -4.1438785123       -0.7803941137
 H          7.8771594049       -2.6788569070        0.0384889549
 H          7.4355018962       -0.3530431198        0.5844000468
 H          7.0898639854        1.6385311928        0.5318415014
 H          6.5432477750        3.9461125038        1.0588985090
 H          4.1885004699        4.6716801778        1.2353653785
 H          2.3747055190        3.0224995654        0.8233654725
 H         -1.1545638551        1.2031947895        0.7846536617
