  78
       -128.37992411
 C          9.9420732328        2.8524958047        2.3981554711
 C          8.5662443106        2.7491341434        2.4206542573
 C          7.9200820471        1.8066803578        1.6348407095
 C          8.6409353175        0.9584934075        0.8037759400
 C         10.0394407262        1.0499438595        0.8129331109
 C         10.6783450256        1.9921891793        1.5968331388
 O         10.8383663890        0.2136952327        0.0727308177
 C         10.2162295992       -0.7239406437       -0.7134122214
 C         11.0295712118       -1.5461204569       -1.4703913897
 C         10.4738846711       -2.4975314657       -2.3134696585
 C          9.1012311802       -2.6055769724       -2.4050918119
 C          8.2807995542       -1.7846224391       -1.6461105695
 C          8.8216565510       -0.8486116706       -0.7734962449
 N          8.0237820840       -0.0042585508        0.0014134325
 C          6.6201559230       -0.1390666981       -0.0089334440
 C          6.0274202649       -1.3138412406        0.4452854548
 C          4.6543459989       -1.4516792194        0.4353291968
 C          3.8392605387       -0.4185037916       -0.0266489686
 C          2.3759465329       -0.5189315707       -0.0456128310
 C          1.7140736042       -1.7739319599       -0.0504514926
 C          0.3501853953       -1.8196296568       -0.0551040124
 C         -0.3763459917       -0.6079020102       -0.0589021429
 N         -1.7165788861       -0.6274062285       -0.0484819855
 C         -2.3760267538        0.5110241606       -0.0583785916
 C         -3.8392810747        0.4127958071       -0.0333643868
 C         -4.6477433012        1.4429573477        0.4458061304
 C         -6.0212494363        1.3088446856        0.4624575332
 C         -6.6197167871        0.1422691316       -0.0053121892
 N         -8.0236507529        0.0110060930        0.0066119727
 C         -8.6400107597       -0.9670385413        0.7910201846
 C         -7.9189353319       -1.8215533817        1.6155219852
 C         -8.5638308704       -2.7795421293        2.3833508076
 C         -9.9386614298       -2.8925638302        2.3491506229
 C        -10.6754583736       -2.0261871077        1.5548123658
 C        -10.0377962522       -1.0683327883        0.7890113482
 O        -10.8371863337       -0.2273662307        0.0546279721
 C        -10.2164899588        0.7341636210       -0.7032367573
 C        -11.0311110585        1.5702094489       -1.4434768938
 C        -10.4772848857        2.5458103858       -2.2596579857
 C         -9.1049623843        2.6639440892       -2.3419313313
 C         -8.2832982685        1.8292658031       -1.5994602808
 C         -8.8223561576        0.8688647361       -0.7526334529
 C         -5.8188127520       -0.8944860216       -0.4792597819
 C         -4.4474495946       -0.7595657999       -0.4861999298
 C         -1.7152839667        1.7654314638       -0.1085942997
 C         -0.3513301270        1.8110264463       -0.1196599746
 C          0.3752147239        0.5995712581       -0.0811446159
 N          1.7153706857        0.6189064397       -0.0730884817
 C          4.4426959476        0.7605756491       -0.4695472814
 C          5.8135160893        0.9006481307       -0.4663618490
 H         10.4493188239        3.5861776497        3.0044783680
 H          7.9798373073        3.3978993214        3.0529687055
 H          6.8452458598        1.7257362118        1.6759115859
 H         11.7555899269        2.0320389428        1.5703855880
 H         12.0976587890       -1.4227780842       -1.3886098440
 H         11.1166534801       -3.1371569675       -2.8975151743
 H          8.6532567440       -3.3267903989       -3.0713718273
 H          7.2091526503       -1.8676940219       -1.7392904065
 H          6.6525799906       -2.1137680736        0.8144567341
 H          4.2200479105       -2.3609825660        0.8221723662
 H          2.2894529395       -2.6861956473       -0.0718002377
 H         -0.1938964688       -2.7520358765       -0.0606176647
 H         -4.2061345860        2.3453050247        0.8408220902
 H         -6.6420181856        2.1050571041        0.8467470954
 H         -6.8450127637       -1.7334894236        1.6652751543
 H         -7.9772961120       -3.4332679543        3.0105240281
 H        -10.4448329422       -3.6388912212        2.9408432305
 H        -11.7521398341       -2.0738104917        1.5195390966
 H        -12.0988120717        1.4378014088       -1.3709137278
 H        -11.1210769009        3.1956336633       -2.8310730612
 H         -8.6580143608        3.4041639064       -2.9877615457
 H         -7.2119224965        1.9206073284       -1.6863544877
 H         -6.2831487033       -1.7986316105       -0.8447009102
 H         -3.8173184909       -1.5553038961       -0.8507117894
 H         -2.2931708622        2.6749725012       -0.1614107610
 H          0.1926055254        2.7427237602       -0.1614157565
 H          3.8083165142        1.5580643078       -0.8225543938
 H          6.2728256145        1.8112564861       -0.8219939739
