  61
        -95.40425763
 C          2.5573571537        3.6791737216        1.3703805356
 C          1.2671358361        3.7593102500        0.8874681792
 C          0.6780657091        2.6599940562        0.2497723935
 C         -0.7011239707        2.6742146346       -0.2225827103
 C         -1.3000422093        3.8142815370       -0.7790132806
 C         -2.6007486071        3.7654590980       -1.2388371100
 C         -3.3489631641        2.6017726567       -1.1574659492
 C         -2.7726261614        1.4617992987       -0.5831074497
 N         -3.4853754664        0.2655699654       -0.4831116319
 C         -4.7733076642        0.1076384186        0.0183287107
 C         -5.6939323742        1.0570625604        0.4062674712
 C         -6.9255762203        0.6148341754        0.8992726383
 C         -7.2072476392       -0.7427483465        1.0048520503
 C         -6.2801775987       -1.7070000524        0.6466426623
 C         -5.0349553034       -1.2876073106        0.1655675117
 C         -3.8773436468       -1.9716763615       -0.2665770527
 N         -3.5715639135       -3.2760884486       -0.3132576405
 C         -2.3819023435       -3.6306221044       -0.7724620469
 C         -1.4049824870       -2.7359673508       -1.1616122943
 C         -1.6985765141       -1.3533109252       -1.1708540296
 C         -2.9335894065       -0.9762613889       -0.6868969369
 C         -1.4655977389        1.5119890944       -0.1210880479
 C          1.4463204567        1.5061670317        0.0787345487
 C          2.7383491414        1.4240609083        0.5711350014
 N          3.4608634447        0.2356309904        0.3950368664
 C          4.7558477541        0.1285393443       -0.0684912213
 C          5.6416050443        1.1222863921       -0.4625213225
 C          6.8901705697        0.7341272967       -0.9123765344
 C          7.2526781986       -0.6086011901       -0.9822204129
 C          6.3644945645       -1.6049399900       -0.6215473233
 C          5.1056077574       -1.2398479041       -0.1674940066
 C          3.9518885396       -1.9872147881        0.2514337689
 C          3.6818278093       -3.3437651025        0.3618396484
 C          2.4351237408       -3.7365063432        0.8129280609
 C          1.4757846792       -2.7955978773        1.1787843783
 C          1.7260773486       -1.4392285193        1.0847972526
 C          2.9603866417       -1.0364183623        0.5915677972
 C          3.3004395896        2.5157898782        1.2364367094
 H          2.9922975923        4.5275018671        1.8783935795
 H          0.6934016959        4.6623396934        1.0301070809
 H         -0.7279519129        4.7245436805       -0.8727583321
 H         -3.0425891902        4.6439944420       -1.6860224358
 H         -4.3447238751        2.5560211726       -1.5676898220
 H         -5.4780831050        2.1127730983        0.3537785054
 H         -7.6608648527        1.3418973492        1.2060010726
 H         -8.1660012664       -1.0504407788        1.3963821613
 H         -6.4920065374       -2.7592973924        0.7458313378
 H         -2.2139059284       -4.6964625122       -0.8475291764
 H         -0.4554881277       -3.0920028125       -1.5251757403
 H         -1.0102682523       -0.6459665938       -1.6072441057
 H         -1.0587572407        0.6468612135        0.3799311232
 H          1.0477864086        0.6758166353       -0.4839385666
 H          5.3635362912        2.1644665900       -0.4342214246
 H          7.5982676279        1.4893690145       -1.2192898278
 H          8.2389305287       -0.8716925653       -1.3341411352
 H          6.6394556840       -2.6461924049       -0.6941428789
 H          4.4324841391       -4.0739354939        0.1000564010
 H          2.2023298628       -4.7873125456        0.8973957517
 H          0.5173840735       -3.1304171270        1.5461779216
 H          0.9861886015       -0.7205310850        1.4014842148
 H          4.2904769182        2.4419802524        1.6579324228
