146
 energy: -190.279336865179 gnorm: 0.000073686872 xtb: 6.7.1 (edcfbbe)
C           -2.82577503918079       -6.88346936970818        1.22581638693283
C           -1.53248995483456       -7.18100696296704        0.45228623975426
C           -0.73700420267278       -8.28331467668404        1.16758047973632
C           -1.91299972434327       -7.69583713619221       -0.93900287337247
C           -0.69181907257588       -5.91508951605056        0.39858968353018
C           -0.24709336519926       -5.33521948780943        1.58628459412446
C            0.51982271392586       -4.18731651123733        1.59039855109377
C            0.86554944300933       -3.57912844154216        0.38948429147457
N            1.64268996009426       -2.38603203507667        0.36500192030983
C            3.01064243022485       -2.47843179438338        0.53447521628997
C            3.57858424477062       -3.72655294024970        0.80367049418922
C            4.93021761249643       -3.85142160264103        1.06623961857196
C            5.76285408031725       -2.72856146589423        1.09408320560135
C            7.23113602707535       -2.90280354609582        1.44660615906993
C            7.88368781452178       -3.84924191807455        0.42695864524107
C            7.33761135653862       -3.50670983366969        2.85546633778169
C            8.00825957055413       -1.58348851725271        1.43402496834403
C            5.19634111568604       -1.50310367370110        0.77676194955683
C            3.84552885657241       -1.32832384897273        0.43411387907184
B            3.20490468590746       -0.00140377658533       -0.00960221349728
C            3.84325999683234        1.32545016833008       -0.45660427249000
C            5.19283204436565        1.50057860522019       -0.80384862843779
C            5.75713574673874        2.72557245702377       -1.12690026014014
C            7.22436986677310        2.90024082252977       -1.48349434538883
C            8.00333329661000        1.58205775177899       -1.46675662253211
C            7.32713563890735        3.49816531462523       -2.89516707937540
C            7.87767236268836        3.85196860531328       -0.46924960798998
C            4.92320290995778        3.84752849659321       -1.10152366779283
C            3.57261554113899        3.72216038803761       -0.83395709007298
C            3.00714333808890        2.47466058562843       -0.55672644641033
N            1.64020086108660        2.38238472266325       -0.37962801259647
C            0.86258874950986        3.57531241147256       -0.40890903462212
C            0.50294857287995        4.16880708063447       -1.61299877445465
C           -0.26517907155807        5.31595302933920       -1.61391492411363
C           -0.69773032268296        5.90901183752814       -0.42828509651150
C           -1.54138590567480        7.17270490715477       -0.48765937462957
C           -0.75415007286061        8.26889421645871       -1.22122248562862
C           -2.84079676517854        6.86491482000246       -1.24680593140773
C           -1.91093733526594        7.70097449043762        0.90152990478206
C           -0.33009196560403        5.29991051464096        0.76619667946794
C            0.43807565305830        4.14886505779518        0.78060958281111
C            0.95638644445078        1.18816327676897       -0.19706622432015
C           -0.43611368637707        1.18486841311083       -0.22343417213175
C           -1.14046141888126       -0.00069802922088        0.01025314786997
N           -2.53935948090857        0.00051299334698        0.01953318624392
C           -3.35753365601394       -0.90904396961526       -0.62323248414597
C           -3.04116913245178       -1.98191483197484       -1.44299594669186
C           -4.07585747749912       -2.71835931251371       -1.98339310016904
C           -5.42764450516176       -2.42484943363637       -1.74471486381012
C           -6.49719639309210       -3.29282680471393       -2.39494018606113
C           -7.91778995030045       -2.85382874171551       -2.02559426698457
C           -6.35437769986238       -3.20549801172506       -3.92209551482802
C           -6.31824571416240       -4.74886647857146       -1.94053336191859
C           -5.73314238473752       -1.34078181925342       -0.93988210514630
C           -4.71148937191376       -0.57893322262773       -0.38393442659062
C           -4.70452425767686        0.58913094353945        0.44657716778466
C           -5.71678303719765        1.35565994258276        1.01316242299666
C           -5.39792445133662        2.43847287735781        1.81451079027953
C           -6.45681392189603        3.31166700763996        2.47513990673155
C           -7.88304172494683        2.88090060754010        2.11799026053950
C           -6.30106171419778        3.22208270654445        4.00089790593724
C           -6.27412236941611        4.76720076585401        2.02059469930128
C           -4.04237875850630        2.72546963705820        2.03948973801354
C           -3.01682076299136        1.98435835503164        1.48818140502547
C           -3.34668375092627        0.91334480417300        0.67130415487288
C           -0.43440606560926       -1.18688324057140        0.23462378656900
C            0.95771048413688       -1.19087013715976        0.19208247203633
C            1.69241042373655       -0.00143894687107       -0.00537719644855
C            0.42755750176383       -4.13872351130831       -0.80189841205125
C           -0.33883373291138       -5.29093306705461       -0.79257232475696
H           -2.61680742592390       -6.59178049816135        2.25151069603744
H           -3.37305863502608       -6.07392310586357        0.74664527096534
H           -3.46117179437890       -7.76626998295730        1.24543232429017
H           -0.49665363488626       -8.00289308426226        2.18931037791211
H            0.19408945484544       -8.47913416799123        0.63900517395977
H           -1.31754166135170       -9.20291189973212        1.19549875614389
H           -2.50747422260234       -8.60169154506707       -0.83909000341265
H           -1.02790309606027       -7.93825578856308       -1.52302856474051
H           -2.50823440849491       -6.96301537763837       -1.47810203595093
H           -0.50215041050405       -5.78187820779207        2.53497519205041
H            0.85439132572669       -3.75327142416406        2.52158238494840
H            2.96269544211426       -4.61319488549644        0.81949903766703
H            5.32300053910931       -4.83617832759057        1.26847555027947
H            8.94213112266473       -3.96873735310768        0.65037367866182
H            7.78562928835640       -3.44291399858281       -0.57810630952826
H            7.41943244521406       -4.83161698607574        0.44357418909027
H            8.38279745232744       -3.63829242936339        3.12908238675119
H            6.84633349673137       -4.47451935925705        2.90991378045405
H            6.87011881376969       -2.84579699190216        3.58313482184370
H            7.99855076796814       -1.13857907562328        0.44202415478226
H            7.59219162714982       -0.87582050744858        2.14780744666664
H            9.04513231837006       -1.76965530315790        1.70860343163375
H            5.80556041396658       -0.61699176810583        0.79724341561836
H            5.80287774022105        0.61502432220027       -0.82345538175444
H            9.03948562406731        1.76849462519810       -1.74385343419102
H            7.58703809146346        0.87090710730727       -2.17693737092090
H            7.99588772202784        1.14123554284488       -0.47290286168083
H            6.86019713407584        2.83287350822824       -3.61919281629029
H            6.83333273528711        4.46448042392028       -2.95314152592585
H            8.37157275388648        3.63113201084030       -3.17097885034165
H            7.78158405843405        3.45016697699466        0.53782928309945
H            8.93564048774609        3.97142941721145       -0.69490929152170
H            7.41246970456965        4.83382150014143       -0.48964112533487
H            5.31411954200147        4.83186356721974       -1.30938355498327
H            2.95549238768108        4.60793373644773       -0.85156540852410
H            0.82761705985000        3.72417177120439       -2.54269675673311
H           -0.53114715590472        5.75124035513646       -2.56488617745018
H           -0.52106299964243        7.97763902397942       -2.24161293807400
H           -1.33705097537523        9.18680311766981       -1.25473515167765
H            0.18056665568649        8.47270490824380       -0.70215192737803
H           -3.38146940940691        6.05809791412601       -0.75566024728732
H           -2.64040674457362        6.56495608406573       -2.27181078894448
H           -3.47880080095328        7.74578732808332       -1.26829718748505
H           -1.02143291916779        7.95177574184608        1.47521975369448
H           -2.50864966880764        8.60422789777662        0.79751523255723
H           -2.49943339600344        6.97213669953514        1.45329158103178
H           -0.63728637503707        5.71420647556015        1.71202767206301
H            0.71625978720712        3.68946233504783        1.71840788561396
H           -0.99140365320807        2.08585191410182       -0.43029446037281
H           -2.01548407288284       -2.23275239308132       -1.66882116302169
H           -3.81979983204936       -3.54980292883545       -2.62272658420060
H           -8.07757273836766       -2.91089221113070       -0.95104132434445
H           -8.63797573926778       -3.51193513767886       -2.50841589480371
H           -8.11371667756748       -1.83816345750482       -2.36212135229988
H           -6.46083714871291       -2.17322936731599       -4.25047056017362
H           -5.38395292854798       -3.56779086456184       -4.25042344966152
H           -7.12384423237951       -3.80379909621685       -4.40609703176607
H           -5.35167047965611       -5.14093800892051       -2.24338606966187
H           -6.39206500582981       -4.81574309523082       -0.85674221938828
H           -7.09161744944040       -5.37662268987983       -2.37890405842486
H           -6.75293277946850       -1.06095229155640       -0.73313973477671
H           -6.73995604523613        1.08046854745927        0.81721896400735
H           -8.08206646607437        1.86643362888920        2.45630317380840
H           -8.05171277077078        2.93883810314645        1.04483710850977
H           -8.59510166769522        3.54327987750628        2.60695756981842
H           -5.32633637448917        3.57994305063683        4.32125136206558
H           -7.06378280313573        3.82314189044234        4.49212943350695
H           -6.40910611922196        2.18994504290152        4.32917107681660
H           -5.30270209544032        5.15377571045805        2.31489329158464
H           -7.04003763346434        5.39862885520859        2.46672488122759
H           -6.35766405867687        4.83562755334557        0.93761723273881
H           -3.77577595447490        3.55543926357295        2.67644829318580
H           -1.98765491710568        2.23011908717933        1.70353831678879
H           -0.98752603268420       -2.08765138141655        0.44819086329181
H            0.69425116625435       -3.66765372078228       -1.73725473258141
H           -0.65610174464698       -5.69434497379075       -1.73979252927769
