  146
       -190.30595216
 C         -3.1678902851       -6.2065510980        0.9470343488
 C         -1.9171787877       -6.7577240523        0.2462210503
 C         -1.4010625117       -7.9987665263        0.9860228210
 C         -2.3109802122       -7.1753283955       -1.1727076871
 C         -0.8538241321       -5.6728724249        0.2618512073
 C         -0.3909723020       -5.1853650839        1.4825475644
 C          0.5035105464       -4.1355823862        1.5504540594
 C          0.9643367369       -3.5421036823        0.3826599025
 N          1.7618749040       -2.3629531536        0.4133818490
 C          3.1299309048       -2.4506741977        0.5673845385
 C          3.6976238635       -3.6982758311        0.8544777086
 C          5.0447608233       -3.8221085479        1.0898295839
 C          5.8900172730       -2.7093316214        1.0694595744
 C          7.3661300210       -2.8860330553        1.3893386531
 C          7.9824414024       -3.8838847058        0.3985976871
 C          7.5062904661       -3.4229431252        2.8205160161
 C          8.1514933720       -1.5756998665        1.2892355540
 C          5.3231542219       -1.4916815951        0.7492141221
 C          3.9649231717       -1.3180004522        0.4515656900
 B          3.3192020285        0.0134228572        0.0049701211
 C          3.9520272611        1.3476869530       -0.4515749139
 C          5.3038018016        1.5255122932       -0.7747799033
 C          5.8616947259        2.7456888367       -1.1009458256
 C          7.3293468173        2.9257953705       -1.4556862556
 C          8.1186718019        1.6162826066       -1.3785948562
 C          7.4330565346        3.4666311335       -2.8885347719
 C          7.9684503248        3.9219469609       -0.4778649281
 C          5.0148080341        3.8573735794       -1.0945611095
 C          3.6727809938        3.7297356825       -0.8331624685
 C          3.1120538291        2.4786455308       -0.5477319743
 N          1.7464340255        2.3843674228       -0.3753284036
 C          0.9423252161        3.5577158986       -0.3221388676
 C          0.5005533892        4.1904567282       -1.4765281827
 C         -0.3989599074        5.2346403499       -1.3880047460
 C         -0.8872712635        5.6765556367       -0.1599953530
 C         -1.9548666718        6.7568167423       -0.1255707305
 C         -1.4250906500        8.0282945550       -0.8011639446
 C         -3.1864905143        6.2322223303       -0.8786462350
 C         -2.3844773306        7.1147337955        1.2993414446
 C         -0.3949334610        5.0667733347        0.9872052425
 C          0.5072754071        4.0209502207        0.9105194801
 C          1.0728855530        1.1952549913       -0.2064989706
 C         -0.3200223329        1.1749825515       -0.2711298039
 C         -1.0023111658        0.0003778646        0.0096740786
 N         -2.4025940115       -0.0079468420       -0.0015936430
 C         -3.2009261427       -1.0010887280       -0.5328179961
 C         -2.8659817458       -2.1685234170       -1.2053573746
 C         -3.8887249286       -2.9793035502       -1.6515413410
 C         -5.2437199125       -2.6721566266       -1.4683136995
 C         -6.2949197185       -3.6332139961       -2.0043960380
 C         -7.7226056429       -3.1670316848       -1.7070393295
 C         -6.1382471372       -3.7489604607       -3.5273765442
 C         -6.1016213132       -5.0122633860       -1.3586170682
 C         -5.5686683987       -1.4906276461       -0.8241925233
 C         -4.5592796985       -0.6555632170       -0.3625910639
 C         -4.5746413974        0.6148850611        0.3060763103
 C         -5.6046201553        1.4386661151        0.7415284751
 C         -5.3093043711        2.6251447643        1.3908143027
 C         -6.3847021556        3.5754966959        1.8974408839
 C         -7.7987848205        3.0915740637        1.5655962037
 C         -6.2679633159        3.6974641123        3.4234829434
 C         -6.1914272407        4.9551917484        1.2529427750
 C         -3.9628635587        2.9484140299        1.6062391009
 C         -2.9200257053        2.1488500460        1.1868620226
 C         -3.2248394763        0.9764194764        0.5087573149
 C         -0.3128669339       -1.1681711968        0.2986819548
 C          1.0804042284       -1.1793306363        0.2403197984
 C          1.8023529383        0.0099590630        0.0149728052
 C          0.5545332581       -4.0499243976       -0.8406769565
 C         -0.3419227753       -5.1023169722       -0.8967568903
 H         -2.9713008654       -5.9908964207        1.9934966590
 H         -3.4914645071       -5.2864958694        0.4649899985
 H         -3.9778350874       -6.9307389526        0.8943050915
 H         -1.1619066999       -7.7740528203        2.0215824566
 H         -0.5031690740       -8.3786376815        0.5027997084
 H         -2.1567150199       -8.7811071089        0.9743765563
 H         -3.0801468815       -7.9432764077       -1.1240893392
 H         -1.4602478524       -7.5849057425       -1.7124085315
 H         -2.7132958936       -6.3317552333       -1.7279182220
 H         -0.7505016214       -5.6127052093        2.4058883888
 H          0.8294388168       -3.7524772242        2.5065337066
 H          3.0687446408       -4.5752915576        0.9024484881
 H          5.4381151343       -4.8029615668        1.3119655668
 H          9.0451365726       -4.0047541608        0.5988061674
 H          7.8615724062       -3.5231721385       -0.6208967223
 H          7.5101756310       -4.8593194045        0.4726178955
 H          8.5566369162       -3.5534428483        3.0732835644
 H          7.0067448451       -4.3814094817        2.9321268886
 H          7.0643473658       -2.7240622372        3.5279260378
 H          8.1046182025       -1.1740776636        0.2801464616
 H          7.7701437335       -0.8358062021        1.9890681760
 H          9.1969197895       -1.7591316255        1.5300346712
 H          5.9356112808       -0.6091448940        0.7421665160
 H          5.9176821224        0.6439912001       -0.7848873442
 H          9.1576689257        1.8020788526       -1.6440221915
 H          7.7216790732        0.8780122293       -2.0713522332
 H          8.0967696016        1.2114943606       -0.3699405995
 H          6.9774659843        2.7673835395       -3.5868472699
 H          6.9264696171        4.4229495362       -2.9858930496
 H          8.4763885770        3.6025473577       -3.1661276391
 H          7.8707345732        3.5598763295        0.5436254937
 H          9.0263451539        4.0425222710       -0.7021583165
 H          7.4953424592        4.8978165219       -0.5397440428
 H          5.4024340139        4.8407736753       -1.3155017944
 H          3.0428702789        4.6068308908       -0.8591564316
 H          0.8449526883        3.8428227771       -2.4396859181
 H         -0.7418779616        5.6940157151       -2.3022445714
 H         -1.1618620048        7.8466991608       -1.8392991095
 H         -2.1828211615        8.8080338579       -0.7743581956
 H         -0.5394788692        8.3891299007       -0.2821864361
 H         -3.5182177335        5.2921216892       -0.4432610679
 H         -2.9644926725        6.0608763266       -1.9281846989
 H         -3.9999964737        6.9515300886       -0.8154952427
 H         -1.5495386723        7.5077426678        1.8747930829
 H         -3.1580526908        7.8790188322        1.2638693658
 H         -2.7928069713        6.2467821434        1.8107669909
 H         -0.7204541002        5.3857876722        1.9631450642
 H          0.8603982015        3.5375803749        1.8102481844
 H         -0.8762911369        2.0517058455       -0.5522150850
 H         -1.8392900925       -2.4397872347       -1.3919112789
 H         -3.6184065289       -3.8847820736       -2.1726959305
 H         -7.8895310151       -3.0821030788       -0.6357577141
 H         -8.4311017253       -3.8922559205       -2.1022848982
 H         -7.9266911638       -2.2082472539       -2.1775118738
 H         -6.2535466289       -2.7717117396       -3.9914726442
 H         -5.1603240281       -4.1386246032       -3.7960086140
 H         -6.8950518699       -4.4166352334       -3.9339378609
 H         -5.1292382819       -5.4294278325       -1.6011176956
 H         -6.1809006001       -4.9344465618       -0.2762447857
 H         -6.8647407419       -5.7025395251       -1.7123176579
 H         -6.5923793652       -1.1928636538       -0.6725402221
 H         -6.6207285977        1.1286387525        0.5654045759
 H         -8.0037728399        2.1320337102        2.0343621844
 H         -7.9373452890        3.0011774084        0.4906676386
 H         -8.5253878628        3.8099957606        1.9400534365
 H         -5.3006458399        4.0967414339        3.7156671719
 H         -7.0408031163        4.3597025164        3.8083255836
 H         -6.3864453848        2.7206734087        3.8878357861
 H         -5.2330819701        5.3870124268        1.5237222964
 H         -6.9748405667        5.6357754129        1.5803662564
 H         -6.2363473743        4.8726740227        0.1689659777
 H         -3.7162272620        3.8580350354        2.1318258950
 H         -1.9013111256        2.4327980603        1.3969927018
 H         -0.8651926245       -2.0483680319        0.5763952314
 H          0.9230826973       -3.5976901115       -1.7503602915
 H         -0.6475926072       -5.4574314906       -1.8666541777
