146
 energy: -190.370925323332 gnorm: 0.000064336124 xtb: 6.7.1 (edcfbbe)
C           -1.88166074689587       -7.67859953595594        1.55670535985360
C           -1.43846781455576       -7.19783710282927        0.17163433541233
C           -0.61924978094596       -8.31888900035389       -0.48523554889233
C           -2.69670325994545       -6.91206313079458       -0.66133260621726
C           -0.59312834881023       -5.93482491335667        0.23138007684449
C           -0.26406334126439       -5.30096844095932        1.42444972190371
C            0.50196982433629       -4.14821944694736        1.43932831820639
C            0.96163253100332       -3.59924545772528        0.25165738565958
N            1.73366218740949       -2.39818401457399        0.25121270993392
C            3.10206506872268       -2.49320313852783        0.43244526751816
C            3.67124349369985       -3.74683974237163        0.68167254504184
C            5.01577058571719       -3.88101369805179        0.94495891220050
C            5.85428835425652       -2.76839026403271        0.99682658571332
C            7.33313760786562       -2.85698248106856        1.34687180638679
C            7.59855758869409       -2.02161495189017        2.60837638420739
C            8.16474149812143       -2.30754951810905        0.17841467183088
C            7.78972999966371       -4.29337331754329        1.62093391366368
C            5.28444575778410       -1.53968595354045        0.70917812359123
C            3.93719926147481       -1.35503233185726        0.38267394846842
B            3.29401370264636       -0.00577310415023       -0.00692032695281
C            3.93953568574446        1.34021405816312       -0.40364121039929
C            5.28508445862127        1.51816094824503       -0.74051801532349
C            5.85715230318542        2.74301435403244       -1.03993969489581
C            7.33463443707987        2.82431585018963       -1.39741337101312
C            7.59783204073636        1.96409460153407       -2.64252462141219
C            7.79047964323668        4.25480010305705       -1.70182489486968
C            8.16833634484207        2.29838236679016       -0.21966158353336
C            5.02291625716146        3.85887533398457       -0.98895533442268
C            3.68002995421080        3.73120621064153       -0.71411352775540
C            3.10832878163428        2.48131766478730       -0.45217709037602
N            1.74124334579488        2.39269139094700       -0.25767562088050
C            0.97449233995159        3.59719611455448       -0.25487358806828
C            0.49934767248286        4.13981812362526       -1.43939634167015
C           -0.26128830954104        5.29607925506735       -1.42131448733493
C           -0.56955600517611        5.93995850545350       -0.22804598892837
C           -1.40926052156382        7.20658938369760       -0.16476020163809
C           -2.65984227863451        6.92860103304134        0.68228646319171
C           -0.57964639951053        8.32760491269718        0.47898056069600
C           -1.86492728086564        7.68345541231440       -1.54715243116151
C           -0.08090151210418        5.38119749259778        0.95142021338048
C            0.68101214043220        4.22890059325682        0.94540382194997
C            1.05670656931567        1.20450915417209       -0.12868967306071
C           -0.33833512906539        1.20190160860356       -0.12628156368171
C           -1.02231326556960        0.00291667241863        0.01041156736662
N           -2.42698281045524        0.00494287316139        0.01464096074961
C           -3.24035807293746       -0.81397211680237       -0.74262204940715
C           -2.91769138152054       -1.77315628949815       -1.69137606831647
C           -3.94989272044678       -2.42642211223326       -2.33326972120342
C           -5.30187300627275       -2.15627902056353       -2.07682329888893
C           -6.36753665218245       -2.91856608000803       -2.85402129536644
C           -6.20028019591630       -2.62477671010346       -4.35265728492232
C           -6.20566759473673       -4.42443064298417       -2.60053964877711
C           -7.79054209469027       -2.52118433932571       -2.44847561472930
C           -5.61231002902860       -1.18707676821090       -1.13735761157756
C           -4.59340161521220       -0.51536689893768       -0.47323036838807
C           -4.59007689025209        0.53246061640123        0.50920874854876
C           -5.60469871629473        1.20780136247199        1.17616355237770
C           -5.28816681931414        2.17638387604563        2.11423069093992
C           -6.34905124036250        2.94304660228573        2.89365961486995
C           -6.18356646033329        4.44797100662278        2.63690820250158
C           -7.77454655626336        2.54910472444925        2.49350664628626
C           -6.17787614058393        2.65137026741873        4.39225654048012
C           -3.93450870546638        2.44195250521317        2.36660740938193
C           -2.90640963049332        1.78501863395667        1.72180996979120
C           -3.23517151112432        0.82667680598791        0.77429131542352
C           -0.34189705999229       -1.19873643776157        0.14130781399088
C            1.05300408377382       -1.20694007792388        0.13061619240677
C            1.77679003489138       -0.00264715230883       -0.00178151380864
C            0.64728115618931       -4.22095931284545       -0.94854701611272
C           -0.11956295128817       -5.36994596588336       -0.95131880001361
H           -2.48093434451339       -8.58070849228120        1.45087140123395
H           -1.02454333335864       -7.91777418143014        2.18218869187407
H           -2.49109271728961       -6.92808617999630        2.05514566844937
H            0.28511988647255       -8.51058272696341        0.08922174146514
H           -0.32972804005869       -8.05812750532324       -1.49947234574074
H           -1.20446585446890       -9.23518694607877       -0.52318632164446
H           -3.33723176883567       -7.79101283013206       -0.68627794364152
H           -2.44349259860574       -6.64725065383136       -1.68403161510474
H           -3.25700962571690       -6.08781052986400       -0.22414255929075
H           -0.60340457081091       -5.69501133787212        2.36808949519140
H            0.74506200845814       -3.66696545338924        2.37590541718341
H            3.05036318641506       -4.63071019650178        0.68186139921289
H            5.39761149332194       -4.87220808056663        1.13039920017984
H            7.00355988477194       -2.39693756271624        3.43904882757807
H            7.34175933206222       -0.97726509440059        2.45240788069041
H            8.65027672847486       -2.07777909835544        2.88283870583206
H            9.22687854124443       -2.38082481960023        0.40421904542483
H            7.93074916972849       -1.26444191047383       -0.01402714232507
H            7.96394360899046       -2.87516051001521       -0.72850879710990
H            7.24845047313094       -4.72281595911880        2.46124068520892
H            7.64682223358159       -4.92359596681656        0.74567041354706
H            8.84998566490034       -4.29650797621201        1.86747757286800
H            5.90034154039147       -0.65649999933008        0.75959344660755
H            5.89758147547911        0.63256405788454       -0.78938180582880
H            8.64895906815286        2.01573290765061       -2.92012123102616
H            7.00090879186843        2.32244079584071       -3.47927953595200
H            7.34269692502862        0.92270211759791       -2.46579466418157
H            7.24237435910341        4.66903195628714       -2.54535828145789
H            7.65580782108626        4.90138596739385       -0.83731875601104
H            8.84865478720561        4.25210300310690       -1.95718246559610
H            7.93160592498681        1.26041105952466       -0.00399509995245
H            9.23004743476694        2.36390968278482       -0.44975642769651
H            7.97125950626729        2.88605073862021        0.67525770530185
H            5.40673296681319        4.84744007453777       -1.18416370618379
H            3.06230067283232        4.61730132086903       -0.71507396391069
H            0.72611163318650        3.65076299278158       -2.37602631080401
H           -0.61300765730321        5.68491371406997       -2.36257562405223
H           -2.39677691457018        6.66346177381681        1.70243950329950
H           -3.29527211573654        7.81106901535037        0.71315838596032
H           -3.22933743106469        6.10688593943720        0.25222472528640
H           -1.16095159672811        9.24637449586680        0.51746764632558
H            0.32026036674299        8.51282558338289       -0.10453808069233
H           -0.28209713657594        8.07110923399130        1.49195845939350
H           -2.48371969555115        6.93406233718839       -2.03564229055649
H           -2.45833053348820        8.58915301397857       -1.43891987310570
H           -1.01331942679743        7.91521104184763       -2.18288172402660
H           -0.29467541155573        5.84801703545874        1.90067488389916
H            1.05208633883051        3.81075564816605        1.87022629796405
H           -0.89817730294486        2.11415823950213       -0.25409964691883
H           -1.88989273390570       -1.99806575056727       -1.93365077095008
H           -3.69000762137672       -3.17232715745205       -3.06936123999720
H           -6.29753047129277       -1.55684296507715       -4.53943801497782
H           -6.96424012782510       -3.14694019155387       -4.92541621443064
H           -5.22625941630770       -2.94489433612734       -4.71259683029058
H           -5.23832706671380       -4.78127656143404       -2.94171189639308
H           -6.29455503516065       -4.63811133861165       -1.53717782172345
H           -6.97809729699224       -4.97895535929560       -3.12979423124734
H           -8.50749081520570       -3.10050940269213       -3.02744128730470
H           -7.96754948808702       -2.72361008031605       -1.39439822798301
H           -7.97450255625706       -1.46734674189121       -2.64538290685151
H           -6.63301921382693       -0.92911218942827       -0.90794791463829
H           -6.62696026954011        0.95318397982494        0.94994036386337
H           -6.27741705636006        4.66023345682749        1.57367764744202
H           -5.21318643559788        4.80212620371072        2.97225266204830
H           -6.95130590825220        5.00589765143397        3.16939702477408
H           -7.96095209191214        1.49618289411521        2.69303658648278
H           -8.48786075078425        3.13168742822026        3.07369352593254
H           -7.95447952686134        2.75004200649243        1.43964394885058
H           -6.94047001619489        3.17418534634326        4.96624171891049
H           -5.20303818733168        2.97223479466497        4.74926880990440
H           -6.27444973600723        1.58367586419252        4.58077498483018
H           -3.66989403254329        3.18716734656710        3.10172724458808
H           -1.87712060981539        2.00656778412092        1.96093964966260
H           -0.90413854032148       -2.10877576333342        0.27426598592059
H            1.00614062979857       -3.79758571054858       -1.87581946273870
H           -0.34938623502766       -5.82918189164206       -1.90051765741533
