146
 energy: -190.371218117660 gnorm: 0.000063411714 xtb: 6.7.1 (edcfbbe)
C           -2.86052631674336       -6.85607258815879        1.11947260319353
C           -1.52738376645421       -7.17798591861116        0.42753500022980
C           -0.77644162150567       -8.26019947201465        1.21753323931371
C           -1.83347203372607       -7.73104634356629       -0.96754371726966
C           -0.67896145172151       -5.91640872224438        0.38490853486110
C           -0.32557204467824       -5.28766966822815        1.57794913688040
C            0.43601932174979       -4.13583480667387        1.59181977330777
C            0.87276563176488       -3.57831898086609        0.39704153694348
N            1.63848024735338       -2.37370564710423        0.38426955075015
C            3.00586239765579       -2.45058684595227        0.57975276728818
C            3.57913869958341       -3.69018767381352        0.89124751285944
C            4.91898082470714       -3.79800776143694        1.17286717077398
C            5.75447214452856       -2.67746994819334        1.18034410813792
C            7.21931571012736       -2.84090250930119        1.55921612493445
C            7.88869926003103       -3.80579132496207        0.56882927596287
C            7.31070179171470       -3.41224069016436        2.98203879129277
C            7.98938091668151       -1.51771218464256        1.52731463551339
C            5.18547430493203       -1.46946359492915        0.82610062620210
C            3.83571776578130       -1.31325046104890        0.48017677684887
B            3.18977709233996        0.01016948165458        0.01216764448345
C            3.82823671277037        1.33823913763205       -0.45279139201060
C            5.17823208917227        1.50389913173919       -0.79323935000975
C            5.74041639176204        2.71605364714487       -1.14409454730459
C            7.20530716067408        2.88947264683954       -1.51819947769139
C            7.98377373737893        1.57123404944294       -1.48541516604422
C            7.29706493567724        3.46286297904120       -2.94016507563763
C            7.86546651149315        3.85764316008986       -0.52485367478822
C            4.89752505207522        3.83104213148933       -1.13781605353238
C            3.55732685989804        3.71385945102807       -0.86170020109412
C            2.99094136943034        2.46987622563591       -0.55506420623068
N            1.62302231099896        2.38294182056261       -0.36731678778238
C            0.84921988700980        3.58233883673725       -0.38300234152101
C            0.41991224734188        4.14162145816926       -1.57967607326086
C           -0.34584092648459        5.29074714040220       -1.56874034964662
C           -0.71097771336091        5.91498326121667       -0.37685606998012
C           -1.55948463903406        7.17641867299548       -0.42277092795220
C           -0.79925219485932        8.26224040414319       -1.19891368799239
C           -2.88498075264293        6.85892391280871       -1.13111920729915
C           -1.88105281593233        7.72262903936287        0.97152049080970
C           -0.27194635590340        5.34121072378346        0.81054822036688
C            0.49901869417563        4.19113713233020        0.81173403619060
C            0.94515246552983        1.19704592393067       -0.19202502800056
C           -0.44934311242038        1.18363404335404       -0.21975002231260
C           -1.12925541213423       -0.00617379778094       -0.00366689252278
N           -2.53308613429763       -0.01226245394131       -0.01122702047479
C           -3.33661808614436       -0.91533678273411       -0.67903362142894
C           -3.00361004393402       -1.97141380003081       -1.51487130231296
C           -4.02823336940004       -2.70317624286067       -2.07972892508011
C           -5.38326687108912       -2.42020916805075       -1.85581766929206
C           -6.44048716540852       -3.28216150794322       -2.53396027165927
C           -7.86755082677560       -2.85280281092808       -2.17855893272568
C           -6.27654958382709       -3.17307948201126       -4.05752220280516
C           -6.26277533743126       -4.74375190437304       -2.09745632851715
C           -5.70438006181308       -1.35050929685973       -1.03682725411978
C           -4.69325367903935       -0.59773131498400       -0.45273209117869
C           -4.70327561789958        0.55548617300701        0.40338245949299
C           -5.72769855992632        1.30043605650299        0.97420860568565
C           -5.42547295573709        2.37352389227246        1.79593839728327
C           -6.49782482397088        3.22808197977692        2.45951049283170
C           -7.91688359940030        2.78772339852016        2.08598574365036
C           -6.35251375980488        3.12158641989199        3.98512427528123
C           -6.32522933103828        4.69054250707644        2.02381022548042
C           -4.07568027735651        2.66761914000348        2.03652278476238
C           -3.03817580432472        1.94371562621620        1.48524563929531
C           -3.35218083086950        0.88433997935891        0.64623600400975
C           -0.44190732841287       -1.19045204327480        0.21911081648363
C            0.95285373090409       -1.19312291983560        0.20332587317765
C            1.67204895394136        0.00470645689210        0.00822621559138
C            0.53604914349746       -4.19271045508833       -0.79870754764344
C           -0.23081052475724       -5.34553118277342       -0.80046811958839
H           -2.70946662059942       -6.54787223339278        2.15038646800972
H           -3.37132635642869       -6.05070348856395        0.59524403648335
H           -3.50416952269612       -7.73310826229234        1.11795864733179
H           -0.58408659271938       -7.94497833245173        2.23939194227880
H            0.17799758072625       -8.47938492208726        0.74247998296063
H           -1.36448518803603       -9.17495534295728        1.24835652922520
H           -2.44351303115890       -8.62732452168215       -0.87511657080596
H           -0.91965918807175       -8.00075886902956       -1.49227573691875
H           -2.38746472162977       -7.00814652397479       -1.56151396004463
H           -0.65093989536937       -5.69672320606295        2.52218939027107
H            0.69546314875575       -3.66026526481224        2.52683128832834
H            2.96368850303854       -4.57720124643528        0.92371721808261
H            5.31365258504840       -4.77511554291526        1.41044689816395
H            8.94489691876778       -3.91646763440660        0.80703174193042
H            7.80121952847253       -3.42242517931809       -0.44624181239089
H            7.42817848560054       -4.78965249145947        0.60149315177769
H            8.35259210184180       -3.53398289550105        3.27247621181715
H            6.82270827888668       -4.38075502975458        3.05248394169676
H            6.83165859653481       -2.73748887305240        3.68924946291735
H            7.99436007852529       -1.09715521531325        0.52467136158220
H            7.55766041867204       -0.79557703247303        2.21697229959672
H            9.02248354779329       -1.69092066115228        1.82360822927015
H            5.78882908649826       -0.57857224389788        0.82994343068132
H            5.78750949780620        0.61704819053197       -0.79567296649254
H            9.01676300857905        1.75144871287343       -1.77789166283366
H            7.55902872662044        0.84731198237914       -2.17753121226777
H            7.98795817354748        1.14932572242707       -0.48334165026108
H            6.82494155188799        2.78542257341984       -3.64947074155081
H            6.80235875585691        4.42793132620573       -3.01115931926368
H            8.33894216262465        3.59226982676507       -3.22729489757359
H            7.77768422838815        3.47252125668139        0.48952161688945
H            8.92156950691999        3.97561221927635       -0.75995596303834
H            7.39849924382355        4.83845068454814       -0.55769413301209
H            5.28665123313942        4.81118858348770       -1.37201790612586
H            2.93630606246162        4.59691686263864       -0.89500142442239
H            0.68920993412903        3.67012485662512       -2.51396424625464
H           -0.66432282378681        5.70178426895342       -2.51447583219543
H           -0.59519224351323        7.95174541977803       -2.21996232973215
H           -1.38664887049470        9.17732301710038       -1.23211276702543
H            0.14972080762353        8.47886509678183       -0.71187675246431
H           -3.40286308670097        6.05230016472758       -0.61587784323765
H           -2.72274240786091        6.55464189145829       -2.16148860696993
H           -3.52736915202656        7.73689234750533       -1.13337659307676
H           -0.97324999787011        7.99187519663310        1.50681875470638
H           -2.49195299643266        8.61808585489076        0.87681990390013
H           -2.43959163620036        6.99595473455725        1.55659850212177
H           -0.52452191764642        5.78201189226840        1.76067867961089
H            0.83217575188968        3.75854277055803        1.74447131672932
H           -1.01019962997861        2.08024656865258       -0.42790248535530
H           -1.97381633034152       -2.21313834535331       -1.73066011694441
H           -3.75925583010026       -3.52424546554854       -2.72737776668253
H           -8.04228739318754       -2.92510040333569       -1.10729204529716
H           -8.57833847933178       -3.50687600126331       -2.68030957960227
H           -8.06235176196953       -1.83341365811228       -2.50425745609946
H           -6.37891740281899       -2.13641625365827       -4.37304550364595
H           -5.30180800368773       -3.53085114829005       -4.37788940603582
H           -7.03913807310244       -3.76474036521565       -4.56020578122468
H           -5.28997842379268       -5.12792094351179       -2.39051584136201
H           -6.35348620131565       -4.82660774268707       -1.01608012997046
H           -7.02673043580327       -5.36788781321040       -2.55689399793718
H           -6.72789892122989       -1.07700889530571       -0.84079605374047
H           -6.74643595146245        1.01841864881992        0.76570139008039
H           -8.10813953520361        1.76711180950074        2.40992033032484
H           -8.07810277128688        2.85791591845353        1.01245457891736
H           -8.63925240480746        3.43662900586910        2.57783528402404
H           -5.38360583061017        3.48466734077327        4.31702746846833
H           -7.12428846880884        3.70990430142869        4.47757897892115
H           -6.45347560919203        2.08475071777033        4.30052655025935
H           -5.35932588990464        5.08226772973725        2.32944379257963
H           -7.09989568165392        5.30944473042166        2.47225839856793
H           -6.40197342541586        4.77155510047224        0.94120750506403
H           -3.82158640968431        3.49156091662556        2.68651669886716
H           -2.01314948220186        2.19406754688658        1.71350940490077
H           -0.99774578781204       -2.09129547157652        0.42227191178944
H            0.87581365327368       -3.76188481650471       -1.72987825401379
H           -0.47351702423776       -5.79036008022409       -1.75129554984196
