  72
        -98.53752562
 C          3.1412849086        3.3200289901        1.4141208055
 C          1.9429728467        2.4464069146        1.2302220120
 C          1.8085597205        1.2520634099        1.9281076124
 C          0.7145535476        0.4275495385        1.7501616867
 C          0.5841335024       -0.7801854746        2.6273921535
 C         -0.2795671680        0.7529018204        0.7850351255
 B         -1.3033336114       -0.3137378431        0.2975216458
 C         -0.8578805980       -1.7110117895       -0.1176351751
 C         -1.7562257502       -2.8116956712       -0.0931917156
 C         -1.3629988661       -4.1074299491       -0.2774578033
 C         -0.0166994178       -4.4074852979       -0.5394503431
 C          0.8939338889       -3.3735020887       -0.6166397525
 C          0.5071172105       -2.0487594458       -0.4536454797
 N          1.5000464076       -1.0726695450       -0.5778180380
 C          2.7111832324       -1.0873822767        0.0815310500
 C          3.1799928573       -1.9667478402        1.0492703143
 C          4.4362222388       -1.7380601872        1.5785290839
 C          5.2167095979       -0.6624780583        1.1584263009
 C          4.7575988465        0.2170105299        0.1945264372
 C          3.4989080141        0.0103233057       -0.3471130000
 C          2.7259868426        0.6963788219       -1.3449405451
 C          2.9693732270        1.7958930527       -2.1534005760
 C          2.0133799826        2.1568021863       -3.0847474577
 C          0.8411400960        1.4202805534       -3.2316363983
 C          0.5762817001        0.3229376036       -2.4335324927
 C          1.5110932820       -0.0177124548       -1.4691424477
 C         -2.8518996577        0.0373807079        0.2490516031
 C         -3.4726033435        0.5755824256        1.3909286375
 C         -2.7063224124        0.7968624453        2.6608984811
 C         -4.8272618144        0.8634576802        1.3840746958
 C         -5.6152395543        0.6409122328        0.2632702409
 C         -7.0823418773        0.9491907563        0.2874163275
 C         -5.0020626387        0.1191297759       -0.8616768773
 C         -3.6449542013       -0.1797590292       -0.8882143715
 C         -3.0856302177       -0.6608651804       -2.1973642372
 C         -0.2125993648        2.0466041768        0.2005013610
 C         -1.3181150450        2.5344956604       -0.6818301958
 C          0.8918486999        2.8434170283        0.4002553077
 H          2.9313224679        4.1054902549        2.1422571538
 H          3.4093039523        3.8006270870        0.4750296684
 H          3.9882628616        2.7402551142        1.7741582965
 H          2.5800276024        0.9633326223        2.6295291549
 H          0.1533431604       -1.6232574124        2.0941335812
 H          1.5516667321       -1.0649864151        3.0349615898
 H         -0.0761342364       -0.5487151957        3.4646700022
 H         -2.7939760141       -2.5981533020        0.1209580599
 H         -2.0862085284       -4.9081617470       -0.2219095636
 H          0.2960250856       -5.4249769400       -0.7130224296
 H          1.9244826814       -3.5788560796       -0.8744843524
 H          2.5819207914       -2.8011388667        1.3814356277
 H          4.8221149196       -2.4069173351        2.3336441042
 H          6.1943488491       -0.5182771964        1.5942734616
 H          5.3640666635        1.0488950374       -0.1305183545
 H          3.8914144742        2.3501305694       -2.0619016176
 H          2.1834613578        3.0114954063       -3.7227951775
 H          0.1279007995        1.7090782440       -3.9894063438
 H         -0.3219935989       -0.2577205223       -2.5586694383
 H         -1.8453255987        1.4397630713        2.4873788547
 H         -2.3407978243       -0.1549763491        3.0440556635
 H         -3.3375322066        1.2562371505        3.4186250499
 H         -5.2873137065        1.2575617639        2.2805953330
 H         -7.2575724166        1.9527093033        0.6727397204
 H         -7.6043795859        0.2469336006        0.9381958388
 H         -7.5113711291        0.8769661997       -0.7091750166
 H         -5.5883399929       -0.0479316355       -1.7555613003
 H         -2.2375125000       -1.3217616092       -2.0507675602
 H         -3.8464785918       -1.1949226817       -2.7630028425
 H         -2.7638623391        0.1916417504       -2.7990330601
 H         -2.2218866422        2.7093440234       -0.0989331998
 H         -1.0361570162        3.4616915044       -1.1755616786
 H         -1.5561508237        1.7890638307       -1.4360351920
 H          0.9586691217        3.7968399134       -0.1059237089
  72
        -98.53743810
 C          3.1533450076        3.2839331336        1.4744456414
 C          1.9551319718        2.4127178680        1.2798240647
 C          1.8166418614        1.2073195179        1.9562222166
 C          0.7200875146        0.3902672298        1.7615462028
 C          0.5765912846       -0.8428512514        2.5971251334
 C         -0.2722956276        0.7366609663        0.7983103213
 B         -1.3001822010       -0.3221433052        0.3096621620
 C         -0.8530935530       -1.7225452375       -0.0976959409
 C         -1.7444662710       -2.8263986551       -0.0500831990
 C         -1.3474711064       -4.1220734756       -0.2297035176
 C         -0.0044747689       -4.4165161965       -0.5125195980
 C          0.8998962749       -3.3791809279       -0.6112635577
 C          0.5100974766       -2.0547805977       -0.4467455434
 N          1.4979509119       -1.0743582586       -0.5871360098
 C          2.7152787299       -1.0785003108        0.0626296098
 C          3.2035774937       -1.9544088038        1.0239861262
 C          4.4588093357       -1.7088101803        1.5474720280
 C          5.2213227034       -0.6207789947        1.1277352906
 C          4.7446719268        0.2536574530        0.1679835813
 C          3.4868699513        0.0296131476       -0.3681139508
 C          2.6997980135        0.7087261032       -1.3596897810
 C          2.9268399678        1.8127044963       -2.1663973614
 C          1.9605664437        2.1678211187       -3.0894492779
 C          0.7945219153        1.4207203737       -3.2287707136
 C          0.5461560223        0.3183832474       -2.4320625800
 C          1.4915158206       -0.0171854972       -1.4763278340
 C         -2.8470577099        0.0349278498        0.2476134255
 C         -3.4718081735        0.6113874728        1.3687721050
 C         -2.7240885276        0.8578795683        2.6452872949
 C         -4.8239488538        0.9151045405        1.3425025387
 C         -5.6062839336        0.6681631006        0.2245286823
 C         -7.0627953257        1.0231920078        0.2047014744
 C         -4.9899074004        0.1056784167       -0.8799417451
 C         -3.6367693217       -0.2091143593       -0.8876334192
 C         -3.0798673547       -0.7343222073       -2.1809262390
 C         -0.1980640657        2.0386946346        0.2325655647
 C         -1.3001680334        2.5436384458       -0.6446866292
 C          0.9082757253        2.8267555134        0.4497507225
 H          2.8858564117        4.1826792817        2.0327418848
 H          3.5477092201        3.6008697592        0.5092434057
 H          3.9327937938        2.7561533509        2.0198341630
 H          2.5847536915        0.9049196624        2.6556572864
 H         -0.3305050360       -0.7831770208        3.1981034893
 H          0.4884967753       -1.7359755777        1.9809154274
 H          1.4300337712       -0.9568745854        3.2624929035
 H         -2.7793979714       -2.6155905084        0.1794861720
 H         -2.0645905926       -4.9264275200       -0.1529938007
 H          0.3111710762       -5.4337629967       -0.6825210463
 H          1.9271309332       -3.5824559187       -0.8838336136
 H          2.6237528843       -2.8005615815        1.3583717939
 H          4.8576579824       -2.3757431057        2.2974867371
 H          6.1987531418       -0.4626859253        1.5592714175
 H          5.3368772645        1.0958627700       -0.1564085497
 H          3.8447965892        2.3749259339       -2.0813704855
 H          2.1178855380        3.0261615497       -3.7258758997
 H          0.0719001526        1.7052818855       -3.9792890388
 H         -0.3484876309       -0.2686683047       -2.5522469681
 H         -3.3252982492        1.4417649850        3.3389702087
 H         -1.7927032843        1.3876896436        2.4568094225
 H         -2.4795332459       -0.0922973111        3.1210199243
 H         -5.2842167550        1.3398755056        2.2248319411
 H         -7.1949024256        2.0447961784       -0.1552021014
 H         -7.4902584256        0.9607880980        1.2032470647
 H         -7.6146065614        0.3595437449       -0.4576353380
 H         -5.5727782712       -0.0812961064       -1.7721530222
 H         -3.8360743963       -1.3065764920       -2.7150235913
 H         -2.7825517258        0.0992081855       -2.8208772474
 H         -2.2173489097       -1.3721631825       -2.0173959396
 H         -2.1965683794        2.7354686419       -0.0554732769
 H         -1.0053854735        3.4651974898       -1.1414909459
 H         -1.5572781666        1.8010738281       -1.3955147981
 H          0.9826116103        3.7882523485       -0.0399122441
  72
        -98.53743403
 C          3.1121308747        3.3363325792        1.4401173914
 C          1.9247396021        2.4514238063        1.2399240618
 C          1.7943467396        1.2578304699        1.9407215917
 C          0.7105676107        0.4225497087        1.7535827134
 C          0.5838108925       -0.7859667728        2.6304856067
 C         -0.2787885473        0.7369774169        0.7810090838
 B         -1.3058343127       -0.3300434981        0.3025415422
 C         -0.8574119921       -1.7219743258       -0.1293167355
 C         -1.7505007097       -2.8264744969       -0.1106911286
 C         -1.3500937310       -4.1192887997       -0.2971959970
 C         -0.0016760556       -4.4108274421       -0.5593648058
 C          0.9025551496       -3.3716583753       -0.6358673033
 C          0.5092221674       -2.0487262734       -0.4702614139
 N          1.4991480871       -1.0687426179       -0.5910482617
 C          2.7050173054       -1.0813935347        0.0789916384
 C          3.1686436125       -1.9618724327        1.0478653317
 C          4.4201669928       -1.7310321266        1.5878562890
 C          5.2014474976       -0.6527666888        1.1763744839
 C          4.7479748597        0.2272637611        0.2103943461
 C          3.4938690172        0.0187532240       -0.3411661290
 C          2.7287697205        0.7039494892       -1.3449198564
 C          2.9794750777        1.8059610264       -2.1476527997
 C          2.0342475873        2.1670358702       -3.0898963386
 C          0.8665498670        1.4271144901       -3.2524551535
 C          0.5946995819        0.3277601584       -2.4589918257
 C          1.5165943277       -0.0133623841       -1.4825404798
 C         -2.8539100701        0.0205062922        0.2620018348
 C         -3.4625303220        0.5839525198        1.4000618420
 C         -2.6885548216        0.8058002495        2.6648611603
 C         -4.8105621339        0.8979164511        1.3923763790
 C         -5.6073549891        0.6724888488        0.2774317741
 C         -7.0636309449        1.0290278615        0.2963094671
 C         -5.0093337115        0.1174928226       -0.8385471464
 C         -3.6573774143       -0.2083434455       -0.8636658642
 C         -3.1303094201       -0.7445633296       -2.1645527206
 C         -0.2116473897        2.0240617030        0.1827200752
 C         -1.3081448213        2.4933934791       -0.7209124486
 C          0.8827682951        2.8330061482        0.3925867270
 H          2.9010166102        4.0874732095        2.2036677847
 H          3.3596211336        3.8588787253        0.5181559559
 H          3.9727023130        2.7558483583        1.7657036009
 H          2.5615401685        0.9789200193        2.6507110731
 H         -0.0623178738       -0.5510232203        3.4778814591
 H          0.1394167492       -1.6244144802        2.1012703181
 H          1.5548071975       -1.0783087500        3.0242509968
 H         -2.7886933440       -2.6183238398        0.1046308832
 H         -2.0677191947       -4.9249706530       -0.2410191234
 H          0.3167754001       -5.4264697516       -0.7333891195
 H          1.9339012208       -3.5704807867       -0.8956831078
 H          2.5711620603       -2.7993734964        1.3731559596
 H          4.8009284587       -2.4003320009        2.3451839880
 H          6.1749670484       -0.5064167226        1.6205915235
 H          5.3552322834        1.0606792266       -0.1092378865
 H          3.8991322088        2.3617486060       -2.0427296391
 H          2.2098318231        3.0235335691       -3.7240334289
 H          0.1613019116        1.7137386330       -4.0183215486
 H         -0.3008614394       -0.2532983402       -2.6028323568
 H         -2.3181190665       -0.1454539434        3.0444445088
 H         -3.3156836394        1.2633870636        3.4271112650
 H         -1.8301704862        1.4509492117        2.4861461246
 H         -5.2603889121        1.3151667673        2.2836125596
 H         -7.5591345328        0.6883483858       -0.6097194572
 H         -7.1880916675        2.1095899002        0.3725024363
 H         -7.5567833380        0.5763069826        1.1557947427
 H         -5.5996540207       -0.0588869677       -1.7281183262
 H         -3.1257234468        0.0467695830       -2.9183298723
 H         -2.1230739751       -1.1327223575       -2.0547077124
 H         -3.7697276719       -1.5478527498       -2.5315083966
 H         -1.5466230227        1.7301216476       -1.4573638416
 H         -2.2149127020        2.6878316041       -0.1481006430
 H         -1.0182290281        3.4067296191       -1.2359426939
 H          0.9479411250        3.7829985352       -0.1202403688
  72
        -98.53732396
 C          3.1163335521        3.3460155464        1.4503260656
 C          1.9213304852        2.4688624155        1.2653294222
 C          1.8007756124        1.2619182738        1.9432921689
 C          0.7188993934        0.4247397703        1.7488151036
 C          0.5975713952       -0.7901628981        2.6173994145
 C         -0.2739554947        0.7474921483        0.7815822286
 B         -1.2968192505       -0.3204958285        0.2949544531
 C         -0.8550098172       -1.7191908522       -0.1174767492
 C         -1.7526520175       -2.8205309804       -0.0829229248
 C         -1.3593828660       -4.1164607064       -0.2645223692
 C         -0.0147178435       -4.4165487378       -0.5351693613
 C          0.8949621149       -3.3822504598       -0.6216806655
 C          0.5084670004       -2.0575608399       -0.4594511271
 N          1.5002290867       -1.0803932915       -0.5864601458
 C          2.7106316863       -1.0915893119        0.0738657193
 C          3.1828072612       -1.9724820289        1.0384728065
 C          4.4380767921       -1.7407646615        1.5687197038
 C          5.2143054937       -0.6610316834        1.1524378073
 C          4.7521681720        0.2191389788        0.1906958008
 C          3.4943975083        0.0099192393       -0.3520310666
 C          2.7192319009        0.6948884178       -1.3491097881
 C          2.9576642554        1.7977009274       -2.1544769597
 C          2.0004417564        2.1571278872       -3.0853385223
 C          0.8318362223        1.4158412907       -3.2346766129
 C          0.5712712338        0.3154785155       -2.4391490988
 C          1.5070722316       -0.0235714514       -1.4751648997
 C         -2.8454673211        0.0325201061        0.2482439112
 C         -3.4604549269        0.5815076027        1.3871385025
 C         -2.6921593070        0.7990010937        2.6564062009
 C         -4.8126008851        0.8862031246        1.3786759791
 C         -5.6017074979        0.6658629035        0.2602395988
 C         -7.0678449596        0.9797491076        0.2668456357
 C         -4.9944186670        0.1255078090       -0.8610115023
 C         -3.6417058912       -0.1882192464       -0.8866951877
 C         -3.0905671540       -0.6880294483       -2.1922430067
 C         -0.2141742499        2.0444975577        0.2036783956
 C         -1.3162348511        2.5266970572       -0.6863572435
 C          0.8764294905        2.8554230968        0.4231373802
 H          3.6387743192        3.1060534765        2.3738660796
 H          2.8318899631        4.3969379046        1.4616905126
 H          3.8093415998        3.1972657160        0.6205637088
 H          2.5691344129        0.9762143219        2.6494365348
 H          1.5664965852       -1.0674264065        3.0268499160
 H         -0.0682943238       -0.5712550370        3.4536472484
 H          0.1777470400       -1.6344503379        2.0775385425
 H         -2.7889655315       -2.6063191066        0.1371017282
 H         -2.0810057850       -4.9180178756       -0.2002790788
 H          0.2973847105       -5.4345551270       -0.7067838234
 H          1.9241313907       -3.5876223023       -0.8848547739
 H          2.5882484317       -2.8104561744        1.3678815974
 H          4.8260108049       -2.4109607288        2.3215824366
 H          6.1910868819       -0.5137409494        1.5888005324
 H          5.3585947359        1.0520641873       -0.1319926403
 H          3.8773416267        2.3562952897       -2.0637503534
 H          2.1673538917        3.0144396226       -3.7205848030
 H          0.1176341820        1.7033196683       -3.9920501380
 H         -0.3247306277       -0.2682245974       -2.5666084689
 H         -3.3253144687        1.2437590729        3.4211819676
 H         -1.8390033618        1.4534122888        2.4865655363
 H         -2.3143943540       -0.1525196619        3.0280870875
 H         -5.2655891146        1.2918040658        2.2736016827
 H         -7.3047157321        1.7121344629        1.0353157644
 H         -7.6439906144        0.0759013139        0.4702911366
 H         -7.3845129122        1.3674760739       -0.6995775779
 H         -5.5853379651       -0.0421913523       -1.7517381703
 H         -3.8502893501       -1.2453131771       -2.7364288178
 H         -2.7898658198        0.1564102273       -2.8154693858
 H         -2.2308758144       -1.3329627061       -2.0428874934
 H         -1.0305659491        3.4483571305       -1.1878677720
 H         -1.5556283559        1.7750658286       -1.4336107475
 H         -2.2203164795        2.7105012445       -0.1068346063
 H          0.9334918751        3.8150197491       -0.0724875227
  72
        -98.53715881
 C          3.0656154404        3.4593071341        1.2569048856
 C          1.8903001426        2.5480554086        1.1122577502
 C          1.7906883478        1.3704287213        1.8418438206
 C          0.7136712559        0.5164463432        1.6943227622
 C          0.6168507550       -0.6695558940        2.6053185518
 C         -0.2958929280        0.7939998670        0.7328519891
 B         -1.3123379957       -0.2969196016        0.2890623204
 C         -0.8676461767       -1.6852953223       -0.1533723769
 C         -1.7722119134       -2.7810114294       -0.1580895381
 C         -1.3913555283       -4.0726203981       -0.3883151270
 C         -0.0491854003       -4.3743008817       -0.6677097741
 C          0.8685290753       -3.3449601311       -0.7084764902
 C          0.4941312499       -2.0228083243       -0.5000413841
 N          1.5068039066       -1.0602284377       -0.5804382969
 C          2.6974027217       -1.1227448055        0.1130481405
 C          3.1093718886       -2.0348921452        1.0762574720
 C          4.3560949687       -1.8558746445        1.6465110520
 C          5.1799078678       -0.7962525233        1.2718322204
 C          4.7778619548        0.1139673107        0.3105363695
 C          3.5317432552       -0.0451918292       -0.2747037339
 C          2.8131377741        0.6752159583       -1.2887150561
 C          3.1236451938        1.7684813898       -2.0829627522
 C          2.2134988513        2.1683703160       -3.0433493845
 C          1.0213305094        1.4747491959       -3.2340656117
 C          0.6925009311        0.3823264789       -2.4535485861
 C          1.5800218878        0.0017848792       -1.4597447322
 C         -2.8687859645        0.0268418348        0.2882378477
 C         -3.4669347674        0.5474592371        1.4502109685
 C         -2.6658132304        0.7872299001        2.6946531072
 C         -4.8273759796        0.8025587086        1.4837168516
 C         -5.6427626318        0.5638238709        0.3854558421
 C         -7.1180009035        0.8223865376        0.4570546791
 C         -5.0505633794        0.0644250942       -0.7600584670
 C         -3.6876206861       -0.2030655770       -0.8254912344
 C         -3.1657064423       -0.6920014983       -2.1465904678
 C         -0.2595518379        2.0682235001        0.1044740163
 C         -1.3789023400        2.4995269204       -0.7906303572
 C          0.8263987820        2.8957689209        0.2750630683
 H          3.3949928131        3.8067380562        0.2786730368
 H          3.8905688430        2.9524762804        1.7519550359
 H          2.7961886948        4.3373333738        1.8461960541
 H          2.5735038672        1.1163299647        2.5441345891
 H          1.6054940968       -0.9898257227        2.9271281182
 H          0.0528615694       -0.3921235371        3.4975545726
 H          0.1015504559       -1.5001862267        2.1310283083
 H         -2.8063512623       -2.5681839211        0.0710723586
 H         -2.1204997269       -4.8692948461       -0.3538552904
 H          0.2551645053       -5.3873461482       -0.8783549031
 H          1.8983180056       -3.5489554984       -0.9711901542
 H          2.4759943384       -2.8569886851        1.3722007406
 H          4.6984227187       -2.5509549168        2.3989411437
 H          6.1472065226       -0.6893918794        1.7402024390
 H          5.4192103234        0.9326487899        0.0209215475
 H          4.0627472971        2.2865612564       -1.9582329362
 H          2.4357607376        3.0191955945       -3.6704453289
 H          0.3445860864        1.7915371171       -4.0134818789
 H         -0.2190501991       -0.1677877581       -2.6207092223
 H         -2.2461873430       -0.1517056688        3.0524259346
 H         -3.2879067250        1.2114663017        3.4799015296
 H         -1.8401913352        1.4688015385        2.4970499088
 H         -5.2696910584        1.1837583936        2.3946202482
 H         -7.3212103094        1.7583295565        0.9745243999
 H         -7.6123011533        0.0216435941        1.0089158290
 H         -7.5536165728        0.8684967378       -0.5383093148
 H         -5.6555713339       -0.1157617556       -1.6388829477
 H         -2.1021242384       -0.8993817644       -2.0970873359
 H         -3.6775403672       -1.6072010131       -2.4426707927
 H         -3.3480120359        0.0555229435       -2.9199564557
 H         -2.2945805499        2.6355657961       -0.2162483806
 H         -1.1348874654        3.4359289097       -1.2874974474
 H         -1.5770938816        1.7405443969       -1.5435120232
 H          0.8700703790        3.8352076954       -0.2590622698
  72
        -98.53679674
 C          3.1249857946        3.3527194059        1.4153182613
 C          1.9331453879        2.4746762745        1.2124816464
 C          1.7916857354        1.2857658098        1.9195472991
 C          0.7033996426        0.4562880619        1.7326870965
 C          0.5671552637       -0.7444467263        2.6192343437
 C         -0.2794162809        0.7715624495        0.7536952565
 B         -1.3073873291       -0.2944703395        0.2743280893
 C         -0.8653594332       -1.6897085222       -0.1526849161
 C         -1.7650119964       -2.7873678963       -0.1195078993
 C         -1.3826440978       -4.0828253061       -0.3339808570
 C         -0.0453658575       -4.3847974209       -0.6287171168
 C          0.8704203338       -3.3539623180       -0.6934899488
 C          0.4935145721       -2.0307657673       -0.5017128387
 N          1.5019117800       -1.0644908680       -0.6033193768
 C          2.6911902951       -1.0855349240        0.0938927326
 C          3.1287160367       -1.9754907491        1.0662246613
 C          4.3694827070       -1.7547606873        1.6347819269
 C          5.1649895798       -0.6782891591        1.2467090952
 C          4.7395321991        0.2080598506        0.2735355208
 C          3.4966755042        0.0101629678       -0.3068779291
 C          2.7615942005        0.6978156420       -1.3316504967
 C          3.0357421240        1.7923295348       -2.1372504778
 C          2.1193295788        2.1435945037       -3.1114592906
 C          0.9602785342        1.3980650155       -3.3093284681
 C          0.6665690426        0.3058376228       -2.5142887577
 C          1.5524920758       -0.0174947517       -1.5000788281
 C         -2.8612695385        0.0388986961        0.2696566528
 C         -3.4611991493        0.5768265326        1.4221553961
 C         -2.6689491181        0.8280841755        2.6700345297
 C         -4.8206127802        0.8419857008        1.4452092232
 C         -5.6331651337        0.5904118556        0.3483251166
 C         -7.1049572234        0.8704850135        0.4082372355
 C         -5.0391687571        0.0714272354       -0.7885658746
 C         -3.6783646928       -0.2003455248       -0.8468329661
 C         -3.1302284039       -0.7091046910       -2.1477981874
 C         -0.2038116950        2.0575620429        0.1529711275
 C         -1.2976660783        2.5299034798       -0.7521443547
 C          0.8960543797        2.8593013039        0.3601127846
 H          2.9321174380        4.0759206957        2.2098267557
 H          3.3522222275        3.9068094917        0.5069098211
 H          3.9918530908        2.7610117675        1.7018588189
 H          2.5533809530        1.0055837002        2.6349651436
 H          1.5427898351       -1.0799467437        2.9641648469
 H         -0.0201273675       -0.4765997784        3.4992198535
 H          0.0579605264       -1.5617754349        2.1165710342
 H         -2.7922520541       -2.5774949746        0.1432890088
 H         -2.1080123907       -4.8814297231       -0.2705653584
 H          0.2595297941       -5.4005865489       -0.8250430015
 H          1.8990779576       -3.5600571013       -0.9588371648
 H          2.5196880461       -2.8134946275        1.3683924720
 H          4.7312969484       -2.4313277760        2.3949187647
 H          6.1294156386       -0.5401871146        1.7129256992
 H          5.3606574170        1.0369469018       -0.0310299828
 H          3.9521745061        2.3491438078       -2.0121496138
 H          2.3141321640        2.9942700880       -3.7477114200
 H          0.2837221142        1.6728192263       -4.1049508866
 H         -0.2097199313       -0.2979526176       -2.6857818666
 H         -2.2833157270       -0.1126302459        3.0602763057
 H         -3.2882677401        1.2925252355        3.4344389451
 H         -1.8201428552        1.4783201908        2.4659575409
 H         -5.2642297738        1.2411678965        2.3477458286
 H         -7.5953493179        0.1693047466        1.0842553906
 H         -7.5593727144        0.7736119211       -0.5748904480
 H         -7.2894517439        1.8767455435        0.7819967015
 H         -5.6457338048       -0.1143837801       -1.6650843857
 H         -3.8156320992       -0.4877450226       -2.9636157517
 H         -2.1716332992       -0.2459567198       -2.3627458162
 H         -2.9777557306       -1.7875950150       -2.1149978077
 H         -2.2331835237        2.6273013734       -0.2030640612
 H         -1.0455513535        3.4923885128       -1.1915881969
 H         -1.4636646527        1.8117975501       -1.5522015855
 H          0.9675794814        3.8080018334       -0.1542431822
  72
        -98.53670026
 C          2.9729453322        3.5915430603        1.1666430990
 C          1.8285169310        2.6389745001        1.0434935775
 C          1.7733897851        1.4620629618        1.7775933795
 C          0.7187785250        0.5765508505        1.6475000647
 C          0.6608674633       -0.5991131817        2.5752663655
 C         -0.3073066676        0.8170337714        0.6943020995
 B         -1.3076167610       -0.2997375169        0.2796156042
 C         -0.8635154527       -1.6864649322       -0.1635918963
 C         -1.7695932120       -2.7816827168       -0.1675971626
 C         -1.3978730661       -4.0700112016       -0.4289549180
 C         -0.0628017271       -4.3709753503       -0.7392442881
 C          0.8583658131       -3.3439972089       -0.7689348219
 C          0.4929793952       -2.0254603766       -0.5272117457
 N          1.5162518079       -1.0708652820       -0.5829329382
 C          2.6967960533       -1.1636223594        0.1229500472
 C          3.0818308274       -2.1003915447        1.0741645389
 C          4.3235839684       -1.9515641689        1.6634899872
 C          5.1662549578       -0.8958978810        1.3218778841
 C          4.7903128429        0.0389066194        0.3731752000
 C          3.5517207316       -0.0924564436       -0.2344154854
 C          2.8567498497        0.6550123209       -1.2460640392
 C          3.1950726935        1.7543957571       -2.0201831360
 C          2.3016920653        2.1855353922       -2.9826270629
 C          1.0991699422        1.5163958571       -3.1959507504
 C          0.7441752839        0.4163342328       -2.4384803423
 C          1.6157419724        0.0038081266       -1.4429917419
 C         -2.8676473053        0.0122911415        0.3054120710
 C         -3.4486758675        0.5284658735        1.4768968717
 C         -2.6302597084        0.7662522725        2.7102963119
 C         -4.8088219642        0.7837118020        1.5291393524
 C         -5.6381748963        0.5474736487        0.4414395684
 C         -7.1121800694        0.8081970174        0.5294902615
 C         -5.0622827717        0.0466874525       -0.7123981994
 C         -3.7004393360       -0.2195025293       -0.7973562068
 C         -3.1936015161       -0.7130081941       -2.1226811926
 C         -0.3111968496        2.0848184022        0.0514179894
 C         -1.4469861587        2.4782499957       -0.8407502206
 C          0.7496849591        2.9461066581        0.2090233948
 H          2.6347834912        4.5444743624        1.5753391253
 H          3.3987783849        3.7888986178        0.1828768432
 H          3.7488710089        3.1893863995        1.8132962755
 H          2.5678563618        1.2361687462        2.4764673760
 H          1.6621978250       -0.9257659198        2.8480430299
 H          0.1491573692       -0.3056295365        3.4936495343
 H          0.1135865058       -1.4292396860        2.1375718015
 H         -2.7982428333       -2.5714830024        0.0869572534
 H         -2.1293955640       -4.8646599683       -0.3956818961
 H          0.2342478969       -5.3801220641       -0.9771706202
 H          1.8850019063       -3.5465376457       -1.0451820681
 H          2.4311992382       -2.9174311824        1.3460283441
 H          4.6458212894       -2.6666646518        2.4059854883
 H          6.1277090603       -0.8111352274        1.8064382835
 H          5.4464591773        0.8551247512        0.1111904247
 H          4.1433973846        2.2514805976       -1.8798754577
 H          2.5455138087        3.0419380159       -3.5939297040
 H          0.4353215589        1.8594544899       -3.9752667406
 H         -0.1756837833       -0.1149662648       -2.6220849816
 H         -1.8123546954        1.4542993286        2.5033930388
 H         -2.1991094327       -0.1717486446        3.0565351848
 H         -3.2427181174        1.1825303816        3.5072343635
 H         -5.2378635377        1.1645412654        2.4464723294
 H         -7.5365002543        0.9789684063       -0.4573290811
 H         -7.3146302907        1.6747175690        1.1559096923
 H         -7.6184088106       -0.0510402303        0.9719854087
 H         -5.6800877689       -0.1327033842       -1.5824059847
 H         -2.1152101434       -0.8336152476       -2.1115809673
 H         -3.6391858674       -1.6775032379       -2.3651451755
 H         -3.4670567415       -0.0129887563       -2.9128305674
 H         -2.3563310216        2.6205438291       -0.2578209434
 H         -1.2206981243        3.4038779331       -1.3652538440
 H         -1.6478691940        1.6981415713       -1.5702884343
 H          0.7610195659        3.8829179732       -0.3313862488
  72
        -98.53513608
 C          3.1642316533        2.8687202098        2.2624553356
 C          1.9656849288        2.0802128265        1.8484548484
 C          1.7128107503        0.8348317029        2.4211678982
 C          0.6374000282        0.0667681873        2.0324615850
 C          0.3845116300       -1.2334538704        2.7307915900
 C         -0.2325122802        0.5081412158        0.9931235482
 B         -1.2889489951       -0.4675792440        0.3998412260
 C         -0.8054998018       -1.8678568026       -0.0083471048
 C         -1.6095916448       -3.0242417531        0.1170008353
 C         -1.1124341836       -4.2929541527       -0.0232484200
 C          0.2362134166       -4.4914032381       -0.3453733061
 C          1.0512695298       -3.3920057452       -0.5300157064
 C          0.5584298299       -2.0992619849       -0.4001698142
 N          1.4409630322       -1.0373570673       -0.6439337957
 C          2.6781580716       -0.8672055505       -0.0614882497
 C          3.3136220644       -1.6218546118        0.9166733695
 C          4.5610786158       -1.2116021835        1.3463771158
 C          5.1792840347       -0.0810612320        0.8149723980
 C          4.5588250810        0.6721433339       -0.1647263179
 C          3.3026535124        0.2846337966       -0.6037986373
 C          2.4055858306        0.8025220845       -1.5977309493
 C          2.4748751714        1.8652329359       -2.4843044149
 C          1.4417750955        2.0432979841       -3.3876568449
 C          0.3640898724        1.1651832152       -3.4217284504
 C          0.2687668104        0.1060308964       -2.5353423202
 C          1.2820618488       -0.0561969200       -1.6047967427
 C         -2.7934341240       -0.0302604107        0.2294943801
 C         -3.3854999106        0.7759979928        1.2331523800
 C         -2.7278132678        0.9731835287        2.5661708049
 C         -4.6156014519        1.3740568678        1.0243642486
 C         -5.3356491163        1.1752421153       -0.1456290853
 C         -6.6435775589        1.8691881602       -0.3771135502
 C         -4.8004224662        0.3111233277       -1.0859877367
 C         -3.5679119618       -0.3055370948       -0.9119183574
 C         -3.1394262623       -1.2088243654       -2.0340583180
 C         -0.0336985447        1.8285627948        0.5036254983
 C         -1.0033192118        2.4244884963       -0.4660104848
 C          1.0590611456        2.5664429514        0.9078085998
 H          4.0597499097        2.4277247340        1.8201708997
 H          3.2873236169        2.8460311636        3.3442963103
 H          3.0897154462        3.9025489698        1.9342544537
 H          2.3770662727        0.4713806384        3.1938048549
 H          0.7179347550       -2.0743228848        2.1230758070
 H          0.9163186723       -1.2680936318        3.6795288898
 H         -0.6794586419       -1.3752368231        2.9079526123
 H         -2.6475707814       -2.8855813482        0.3834200509
 H         -1.7568785934       -5.1478712508        0.1221374366
 H          0.6283654169       -5.4877402552       -0.4766268502
 H          2.0808207770       -3.5236464438       -0.8356890414
 H          2.8533710847       -2.5044567941        1.3324663769
 H          5.0717411414       -1.7822993602        2.1076810197
 H          6.1582522979        0.2032578380        1.1721615371
 H          5.0393235864        1.5432708922       -0.5849574403
 H          3.3239575950        2.5318916930       -2.4757150388
 H          1.4774826897        2.8647312179       -4.0878161400
 H         -0.4156685139        1.3114967104       -4.1544578653
 H         -0.5607668441       -0.5776680276       -2.5775133285
 H         -2.5090207227        0.0104828160        3.0260030157
 H         -3.3757958403        1.5363211831        3.2346142813
 H         -1.7857067331        1.5102174467        2.4669196733
 H         -5.0378585363        1.9963463091        1.8024517563
 H         -7.2309582421        1.3507822727       -1.1315223892
 H         -6.4672936121        2.8882626189       -0.7256695639
 H         -7.2219673578        1.9268043495        0.5430370154
 H         -5.3502176693        0.1137279606       -1.9969281006
 H         -3.1175007912       -0.6568116362       -2.9744568611
 H         -2.1658730918       -1.6482226910       -1.8533009100
 H         -3.8574509235       -2.0214841475       -2.1466583944
 H         -1.9227662393        2.7071260625        0.0480437270
 H         -0.5832747008        3.3094261634       -0.9387693879
 H         -1.2738133332        1.7029507037       -1.2329695625
 H          1.2180056497        3.5500479479        0.4866829022
