  72
        -98.53752562
 C          3.1412849086        3.3200289901        1.4141208055
 C          1.9429728467        2.4464069146        1.2302220120
 C          1.8085597205        1.2520634099        1.9281076124
 C          0.7145535476        0.4275495385        1.7501616867
 C          0.5841335024       -0.7801854746        2.6273921535
 C         -0.2795671680        0.7529018204        0.7850351255
 B         -1.3033336114       -0.3137378431        0.2975216458
 C         -0.8578805980       -1.7110117895       -0.1176351751
 C         -1.7562257502       -2.8116956712       -0.0931917156
 C         -1.3629988661       -4.1074299491       -0.2774578033
 C         -0.0166994178       -4.4074852979       -0.5394503431
 C          0.8939338889       -3.3735020887       -0.6166397525
 C          0.5071172105       -2.0487594458       -0.4536454797
 N          1.5000464076       -1.0726695450       -0.5778180380
 C          2.7111832324       -1.0873822767        0.0815310500
 C          3.1799928573       -1.9667478402        1.0492703143
 C          4.4362222388       -1.7380601872        1.5785290839
 C          5.2167095979       -0.6624780583        1.1584263009
 C          4.7575988465        0.2170105299        0.1945264372
 C          3.4989080141        0.0103233057       -0.3471130000
 C          2.7259868426        0.6963788219       -1.3449405451
 C          2.9693732270        1.7958930527       -2.1534005760
 C          2.0133799826        2.1568021863       -3.0847474577
 C          0.8411400960        1.4202805534       -3.2316363983
 C          0.5762817001        0.3229376036       -2.4335324927
 C          1.5110932820       -0.0177124548       -1.4691424477
 C         -2.8518996577        0.0373807079        0.2490516031
 C         -3.4726033435        0.5755824256        1.3909286375
 C         -2.7063224124        0.7968624453        2.6608984811
 C         -4.8272618144        0.8634576802        1.3840746958
 C         -5.6152395543        0.6409122328        0.2632702409
 C         -7.0823418773        0.9491907563        0.2874163275
 C         -5.0020626387        0.1191297759       -0.8616768773
 C         -3.6449542013       -0.1797590292       -0.8882143715
 C         -3.0856302177       -0.6608651804       -2.1973642372
 C         -0.2125993648        2.0466041768        0.2005013610
 C         -1.3181150450        2.5344956604       -0.6818301958
 C          0.8918486999        2.8434170283        0.4002553077
 H          2.9313224679        4.1054902549        2.1422571538
 H          3.4093039523        3.8006270870        0.4750296684
 H          3.9882628616        2.7402551142        1.7741582965
 H          2.5800276024        0.9633326223        2.6295291549
 H          0.1533431604       -1.6232574124        2.0941335812
 H          1.5516667321       -1.0649864151        3.0349615898
 H         -0.0761342364       -0.5487151957        3.4646700022
 H         -2.7939760141       -2.5981533020        0.1209580599
 H         -2.0862085284       -4.9081617470       -0.2219095636
 H          0.2960250856       -5.4249769400       -0.7130224296
 H          1.9244826814       -3.5788560796       -0.8744843524
 H          2.5819207914       -2.8011388667        1.3814356277
 H          4.8221149196       -2.4069173351        2.3336441042
 H          6.1943488491       -0.5182771964        1.5942734616
 H          5.3640666635        1.0488950374       -0.1305183545
 H          3.8914144742        2.3501305694       -2.0619016176
 H          2.1834613578        3.0114954063       -3.7227951775
 H          0.1279007995        1.7090782440       -3.9894063438
 H         -0.3219935989       -0.2577205223       -2.5586694383
 H         -1.8453255987        1.4397630713        2.4873788547
 H         -2.3407978243       -0.1549763491        3.0440556635
 H         -3.3375322066        1.2562371505        3.4186250499
 H         -5.2873137065        1.2575617639        2.2805953330
 H         -7.2575724166        1.9527093033        0.6727397204
 H         -7.6043795859        0.2469336006        0.9381958388
 H         -7.5113711291        0.8769661997       -0.7091750166
 H         -5.5883399929       -0.0479316355       -1.7555613003
 H         -2.2375125000       -1.3217616092       -2.0507675602
 H         -3.8464785918       -1.1949226817       -2.7630028425
 H         -2.7638623391        0.1916417504       -2.7990330601
 H         -2.2218866422        2.7093440234       -0.0989331998
 H         -1.0361570162        3.4616915044       -1.1755616786
 H         -1.5561508237        1.7890638307       -1.4360351920
 H          0.9586691217        3.7968399134       -0.1059237089
