  56
        -94.82346129
 O          3.4805399497        3.3419979364        0.7821442065
 S          3.2132325827        2.2562569488       -0.1288575883
 O          3.4194239324        2.5332883184       -1.5341876633
 C          4.1886210117        0.8288815646        0.2956778370
 C          5.5115747163        1.0186279099        0.6470975902
 C          6.3384503755       -0.0660783633        0.8710405656
 C          5.8179461860       -1.3429406098        0.7196196407
 C          4.4943707873       -1.5355430968        0.3808970713
 C          3.6356183094       -0.4447130647        0.1720147887
 N          2.2987284322       -0.6627993167       -0.1201702460
 C          1.9043838004       -2.0032994667       -0.4318671218
 C          1.9354821987       -2.4216657405       -1.7540721075
 C          1.5566422287       -3.7147145615       -2.0734424383
 C          1.1472563445       -4.5848491229       -1.0766995332
 C          1.1147795780       -4.1644111665        0.2431931576
 C          1.4926128418       -2.8738767683        0.5703575138
 C          1.2980943741        0.2871079668       -0.0311125322
 C         -0.0411190278       -0.1112608092       -0.0338975035
 C         -1.0615439632        0.8272001733        0.1129390085
 N         -2.4185019942        0.3855097378        0.1111438632
 C         -2.9602646037        0.0304331954        1.3183429679
 C         -2.1501798683       -0.1001660632        2.4595127624
 C         -2.6720609642       -0.4416065280        3.6791763428
 C         -4.0660542955       -0.6376535842        3.8335944720
 C         -4.8903605560       -0.4808124475        2.7549515061
 C         -4.3756668388       -0.1751207066        1.4878522402
 S         -5.5093194831        0.1751813007        0.2295933120
 C         -4.5085470287        0.2654329271       -1.1774565858
 C         -5.1458939129        0.3750981572       -2.4199478037
 C         -4.4284989794        0.5709455514       -3.5669353399
 C         -3.0206633760        0.7067683718       -3.4937410073
 C         -2.3794082863        0.6480973787       -2.2853654796
 C         -3.0793339614        0.4169143485       -1.0876348543
 C         -0.7799762014        2.1831142581        0.2722021102
 C          0.5359745711        2.5856601530        0.2488693335
 C          1.5611277303        1.6570982575        0.0895891936
 H          5.8656107680        2.0339137541        0.7317410673
 H          7.3712095286        0.0788470711        1.1442213110
 H          6.4503301197       -2.2046046427        0.8720326819
 H          4.1163077146       -2.5404274476        0.2772385832
 H          2.2590757278       -1.7316356747       -2.5190472812
 H          1.5834354981       -4.0413188575       -3.1018358230
 H          0.8538515506       -5.5926999483       -1.3279356472
 H          0.7960986844       -4.8418505158        1.0209364874
 H          1.4743295158       -2.5347673448        1.5958635702
 H         -0.3102566113       -1.1490434253       -0.1460219538
 H         -1.0883543543        0.0621806919        2.3617440258
 H         -2.0204177112       -0.5529594923        4.5305779367
 H         -4.4677786605       -0.8993310485        4.7987925175
 H         -5.9591875683       -0.6017252701        2.8488057090
 H         -6.2216812020        0.2857483787       -2.4446404490
 H         -4.9245808886        0.6283030577       -4.5219406256
 H         -2.4526731589        0.8656640074       -4.3959460935
 H         -1.3082956980        0.7677780109       -2.2439348685
 H         -1.5830623232        2.8922089403        0.3947758375
 H          0.8141187606        3.6220121568        0.3465678446
