  34
  -62.1138645318000        1.00000000000000      !
 Br         5.1042422596        1.0371399768       -0.0033264212
 C          3.9270333198       -0.4678422655       -0.0165544841
 C          4.4669439481       -1.7463077414       -0.0467272691
 C          3.5546739033       -2.8104432821       -0.0433903801
 C          2.2085854201       -2.5495917714       -0.0135119544
 C          1.7715423780       -1.2027657913        0.0121973370
 C          0.4095861848       -0.8503877460        0.0167439696
 N         -0.6406562078       -1.6826867654        0.0236276450
 C         -1.7258844915       -0.9143588697        0.0780446548
 C         -3.0964341510       -1.3123435085        0.0454878495
 C         -3.5183523025       -2.6355216684        0.0341472420
 C         -4.8772603447       -2.9227833140       -0.0312636655
 C         -5.7673319950       -1.8565553941       -0.0501232544
 N         -5.3753136160       -0.6056129609       -0.0540238956
 C         -4.0814636483       -0.2809598357       -0.0134205358
 C         -3.7063942621        1.1018502862        0.0049964713
 N         -4.6539987875        2.0326582882       -0.0110134969
 C         -4.3761602065        3.3015010186       -0.0283053614
 C         -3.0479812294        3.7847569091       -0.0655275040
 C         -2.0294345692        2.8757061752        0.0174544100
 C         -2.3111605175        1.4947993681        0.0627009958
 C         -1.3667043898        0.4703588437        0.0870341655
 N         -0.0087755045        0.4749894251        0.0145946851
 N          2.6595991375       -0.1742425367        0.0154510928
 H          5.5321561221       -1.9035840321       -0.0633856336
 H          3.9228295339       -3.8251799100       -0.0639605541
 H          1.4638666752       -3.3274906107       -0.0188501521
 H         -2.7749758215       -3.4159088797        0.0904164784
 H         -5.2378443691       -3.9380999096       -0.0513616020
 H         -6.8371512158       -2.0156324019       -0.0686179316
 H         -5.2148699653        3.9823760429        0.0044716406
 H         -2.8618522522        4.8454872071       -0.1050432723
 H         -1.0008639056        3.2048239066        0.0690601684
 H          0.6291960864        1.2517843988        0.0332880989
