  58
        -89.01654116
 C         -6.7259618128       -2.4108265815       -0.1067218278
 C         -6.2752485853       -1.6059483549        0.9263655011
 C         -4.9775809801       -1.1303606961        0.9233813691
 C         -4.1097677596       -1.4559953493       -0.1157328644
 C         -2.7206120094       -0.9652168502       -0.1249170753
 C         -1.6925737315       -1.8593437498       -0.3161255684
 C         -0.3561277767       -1.4369924308       -0.2842152102
 N          0.6468135686       -2.3239961616       -0.4988387187
 C          1.8655389301       -1.8847383998       -0.4397278725
 C          2.1720689991       -0.5159524002       -0.1654624170
 N          3.4731465876       -0.0760018502       -0.1236533810
 C          3.7663406520        1.2972895519       -0.2591603927
 C          4.7333718966        1.8804152755        0.5547599585
 C          5.0416158465        3.2203193122        0.4143918534
 C          4.3872314504        3.9929322259       -0.5300602582
 C          3.4236987328        3.4142016319       -1.3392465107
 C          3.1148744305        2.0733940082       -1.2121162543
 C          4.5320592417       -0.9572601158        0.1591370278
 C          5.7261864454       -0.8484382486       -0.5504559396
 C          6.7785749475       -1.6986642833       -0.2708054345
 C          6.6540820886       -2.6672346346        0.7120018313
 C          5.4702545052       -2.7754001005        1.4223529293
 C          4.4149132583       -1.9235296017        1.1557337707
 N          1.2120105482        0.3682313152        0.0090914014
 C         -0.0609118213       -0.0692021950       -0.0427764803
 C         -1.1211241644        0.8352415717        0.1349747702
 C         -2.4275963016        0.4093975192        0.0900649029
 C         -3.5094584383        1.4003803818        0.2301417636
 C         -3.4967657476        2.3063281764        1.2868041436
 C         -4.5058888735        3.2420654621        1.4210953456
 C         -5.5341925135        3.2931576799        0.4952819389
 C         -5.5453377134        2.4068519461       -0.5689180510
 C         -4.5421294401        1.4656076602       -0.7014780959
 C         -4.5666581251       -2.2787415554       -1.1415996272
 C         -5.8671253257       -2.7482527086       -1.1391090347
 H         -7.7423938858       -2.7760592249       -0.1058363346
 H         -6.9383682604       -1.3476779610        1.7392691779
 H         -4.6277624557       -0.5120748959        1.7370170187
 H         -1.8926860022       -2.9090594651       -0.4694184552
 H          2.6515405280       -2.5998984322       -0.6441032502
 H          5.2387678573        1.2806426618        1.2978000796
 H          5.7924700894        3.6635095150        1.0517136172
 H          4.6261270723        5.0406712534       -0.6339820789
 H          2.9126001805        4.0093133145       -2.0815699203
 H          2.3688855974        1.6252356309       -1.8494373856
 H          5.8188418334       -0.0935730146       -1.3174228830
 H          7.6991725336       -1.6081214312       -0.8277025343
 H          7.4770173767       -3.3319116608        0.9259818477
 H          5.3690391577       -3.5218128561        2.1962119987
 H          3.4988206587       -1.9964261399        1.7237719872
 H         -0.8814809281        1.8764564867        0.2891106857
 H         -2.6998718811        2.2593576842        2.0152645569
 H         -4.4901195935        3.9336545620        2.2511294654
 H         -6.3220141972        4.0244811753        0.6003144731
 H         -6.3401046860        2.4488450830       -1.2992429532
 H         -4.5498667661        0.7823316542       -1.5379608950
 H         -3.8999098410       -2.5325379193       -1.9535519945
 H         -6.2121536522       -3.3787690242       -1.9457899612
  58
        -89.01645907
 C         -6.8064411353       -1.5392747265       -1.5162699419
 C         -5.8739001162       -2.5609393451       -1.4561153076
 C         -4.5553285435       -2.2797134470       -1.1489978409
 C         -4.1535051571       -0.9728674726       -0.8869886256
 C         -2.7445787270       -0.6844834981       -0.5659214869
 C         -1.7560114719       -1.1661892322       -1.3926139065
 C         -0.4070103265       -0.8737576276       -1.1478200593
 N          0.5564012225       -1.3559901166       -1.9714329144
 C          1.7864895445       -1.0384956807       -1.7119407228
 C          2.1461642336       -0.2270611888       -0.5918353588
 N          3.4646279839        0.0621797913       -0.3279993595
 C          4.4143523387        0.0957306861       -1.3640959324
 C          5.6886792634       -0.4266210651       -1.1530487613
 C          6.6301465812       -0.3855061792       -2.1633774594
 C          6.3146035568        0.1694440350       -3.3930471096
 C          5.0499647304        0.6928041796       -3.6052096594
 C          4.1042380781        0.6640383171       -2.5978209794
 C          3.8673344634        0.4400639337        0.9689134866
 C          4.7980282290        1.4614303888        1.1371852500
 C          5.2176866121        1.8149628578        2.4057317585
 C          4.7111528048        1.1628793117        3.5171483638
 C          3.7814401959        0.1496627155        3.3513676792
 C          3.3623851298       -0.2166047745        2.0867636724
 N          1.2297861599        0.2244973902        0.2382746402
 C         -0.0567827929       -0.0767811502       -0.0258666233
 C         -1.0759762348        0.3982929287        0.8162097511
 C         -2.3955868076        0.1069561930        0.5623142675
 C         -3.4306435592        0.6029240186        1.4868539830
 C         -4.3822887045       -0.2579739205        2.0267379509
 C         -5.3445414803        0.2201940134        2.8960314911
 C         -5.3725329949        1.5624467381        3.2363953087
 C         -4.4235094491        2.4238665417        2.7125971140
 C         -3.4554293711        1.9469957150        1.8481917109
 C         -5.0961304742        0.0492143265       -0.9597276596
 C         -6.4120412333       -0.2339363849       -1.2734175265
 H         -7.8366302073       -1.7591632625       -1.7547912818
 H         -6.1750574576       -3.5806541852       -1.6480298055
 H         -3.8295571920       -3.0784468353       -1.0913073156
 H         -2.0008941236       -1.7547337223       -2.2638955849
 H          2.5452607439       -1.4486226342       -2.3655878221
 H          5.9304942287       -0.8613517764       -0.1943702693
 H          7.6147100501       -0.7941164012       -1.9910965977
 H          7.0520658364        0.1983080011       -4.1805805171
 H          4.7995645436        1.1359907450       -4.5575033135
 H          3.1234284189        1.0876589500       -2.7585889176
 H          5.1883045331        1.9768728508        0.2716567560
 H          5.9395482546        2.6094231731        2.5254171532
 H          5.0384059168        1.4431588768        4.5070558174
 H          3.3846327747       -0.3662085189        4.2132293079
 H          2.6433574782       -1.0109559231        1.9618991235
 H         -0.7929073761        0.9871667459        1.6754984505
 H         -4.3587339968       -1.3072508492        1.7715196083
 H         -6.0769731341       -0.4577432339        3.3094430244
 H         -6.1298871911        1.9353855246        3.9101272643
 H         -4.4382000310        3.4712031299        2.9775388171
 H         -2.7207270037        2.6209825540        1.4311850884
 H         -4.7911897722        1.0699657364       -0.7813849879
 H         -7.1337203540        0.5679769144       -1.3287539440
  58
        -89.01637800
 C         -6.7244851921       -2.3853312184       -0.2860687158
 C         -6.2868627306       -1.6476920499        0.8013450630
 C         -4.9881008688       -1.1775165278        0.8469255139
 C         -4.1062448510       -1.4414369178       -0.1975385064
 C         -2.7158148795       -0.9551353818       -0.1601367491
 C         -1.6878926183       -1.8434576467       -0.3774644376
 C         -0.3507491151       -1.4274581272       -0.3113184952
 N          0.6523130231       -2.3154013567       -0.5219728198
 C          1.8711648984       -1.8810468543       -0.4366197969
 C          2.1762743539       -0.5132966917       -0.1579160225
 N          3.4791948533       -0.0729693434       -0.1257421741
 C          3.7715203971        1.2882606636       -0.3471486667
 C          4.7351097518        1.9286240849        0.4264811537
 C          5.0418100040        3.2559010920        0.1922685141
 C          4.3892166565        3.9592286698       -0.8060408059
 C          3.4273320063        3.3240598232       -1.5740885785
 C          3.1203500582        1.9953537865       -1.3530816379
 C          4.5260123546       -0.9416753266        0.2253736171
 C          5.7451930292       -0.8659040158       -0.4450365555
 C          6.7822005953       -1.7087377515       -0.0945628369
 C          6.6178932536       -2.6379340047        0.9198294478
 C          5.4084422246       -2.7142669562        1.5903365822
 C          4.3682914400       -1.8691664146        1.2532037169
 N          1.2177500208        0.3695467606        0.0276459581
 C         -0.0553285999       -0.0670980123       -0.0304930721
 C         -1.1150859801        0.8297497099        0.1839660397
 C         -2.4218180677        0.4064678663        0.1237818841
 C         -3.5026031905        1.3866403183        0.3327547537
 C         -3.4829909321        2.2139323449        1.4520960478
 C         -4.4928665525        3.1345667339        1.6624292273
 C         -5.5288508731        3.2493972684        0.7511784144
 C         -5.5463256776        2.4431232467       -0.3748480701
 C         -4.5423232624        1.5164522962       -0.5837513901
 C         -4.5499231018       -2.1977334320       -1.2787390358
 C         -5.8515058641       -2.6616979104       -1.3244725763
 H         -7.7417435807       -2.7462233584       -0.3226493235
 H         -6.9613968297       -1.4368902427        1.6182823367
 H         -4.6486368289       -0.6118262286        1.7019941378
 H         -1.8893843739       -2.8856876977       -0.5743635999
 H          2.6599021335       -2.5976051354       -0.6251886371
 H          5.2392579516        1.3835242165        1.2111933346
 H          5.7903845011        3.7443067520        0.7985893592
 H          4.6283120023        4.9967990139       -0.9843961876
 H          2.9167567554        3.8646595796       -2.3572012580
 H          2.3754195303        1.5024523370       -1.9579800315
 H          5.8694384504       -0.1432748378       -1.2380192375
 H          7.7223809048       -1.6440016553       -0.6216084940
 H          7.4292752935       -3.2968545318        1.1888236818
 H          5.2756946699       -3.4290388520        2.3887273276
 H          3.4317620085       -1.9167051035        1.7897942472
 H         -0.8748562464        1.8630506532        0.3832952481
 H         -2.6798997423        2.1159218779        2.1686712342
 H         -4.4724754717        3.7629495033        2.5411351141
 H         -6.3186649231        3.9672166951        0.9165539223
 H         -6.3472253802        2.5360206432       -1.0936145958
 H         -4.5553202146        0.8957688453       -1.4675381339
 H         -3.8713865000       -2.4045114430       -2.0940662866
 H         -6.1859668067       -3.2404584048       -2.1732308571
  58
        -89.01636966
 C         -6.8111388276       -1.4534457101       -1.6152865808
 C         -6.3027481935       -1.8255544001       -0.3818568959
 C         -4.9882780377       -1.5476459955       -0.0575450639
 C         -4.1614872694       -0.8936390165       -0.9669338085
 C         -2.7549601057       -0.5984851815       -0.6410700450
 C         -1.7681215564       -0.9852868878       -1.5181312038
 C         -0.4164570053       -0.7545109670       -1.2272577420
 N          0.5490575636       -1.1898247793       -2.0739837519
 C          1.7824733362       -0.9341099923       -1.7671601313
 C          2.1434378105       -0.2096804373       -0.5883710581
 N          3.4578038782        0.0694792592       -0.3063487797
 C          4.4374814958        0.0572225755       -1.3180033511
 C          5.6721539829       -0.5372500385       -1.0680417639
 C          6.6460854875       -0.5498484569       -2.0479369053
 C          6.4015886359        0.0248547669       -3.2845598363
 C          5.1780567225        0.6241858343       -3.5334720741
 C          4.2005177912        0.6486680893       -2.5564502181
 C          3.8504323940        0.4839795080        0.9836406804
 C          3.3334961560       -0.1256041218        2.1219332100
 C          3.7430074077        0.2916120202        3.3742332800
 C          4.6742060027        1.3081189551        3.5075621958
 C          5.1955869258        1.9107115034        2.3753137124
 C          4.7857713682        1.5064547509        1.1189893108
 N          1.2244744581        0.1709793829        0.2746707447
 C         -0.0628962504       -0.0959472769       -0.0201622021
 C         -1.0807615735        0.2870077181        0.8691026624
 C         -2.4027558991        0.0500414748        0.5737588422
 C         -3.4404118965        0.5016429986        1.5180386012
 C         -3.3472132359        0.1673269395        2.8660904491
 C         -4.3163980959        0.5816826530        3.7609117117
 C         -5.3850609103        1.3454826880        3.3231225192
 C         -5.4763032312        1.6976263798        1.9867023975
 C         -4.5128017778        1.2786211697        1.0887017150
 C         -4.6762378817       -0.5383475634       -2.2106386434
 C         -5.9934157960       -0.8116124568       -2.5298974913
 H         -7.8406688347       -1.6651232346       -1.8639216171
 H         -6.9343729277       -2.3338301631        0.3320796385
 H         -4.5938896921       -1.8481300834        0.9020381620
 H         -2.0131689526       -1.4975312851       -2.4362867323
 H          2.5400316396       -1.3261863026       -2.4328863019
 H          5.8565986712       -0.9872038848       -0.1035831853
 H          7.5987979671       -1.0165472698       -1.8467591016
 H          7.1629231585        0.0098568588       -4.0494336522
 H          4.9853830063        1.0850052897       -4.4908348137
 H          3.2523180185        1.1308765605       -2.7451956826
 H          2.6116638344       -0.9203802409        2.0229881343
 H          3.3373306093       -0.1873413801        4.2531250119
 H          4.9911157482        1.6298657788        4.4881378067
 H          5.9195945079        2.7067507210        2.4686535404
 H          5.1859100364        1.9849207288        0.2367866085
 H         -0.7985600864        0.8012166647        1.7753979916
 H         -2.5180210539       -0.4371696033        3.2053278995
 H         -4.2384324139        0.3068843212        4.8029482884
 H         -6.1432764982        1.6672941693        4.0217682937
 H         -6.3034333125        2.3008222310        1.6418852437
 H         -4.5833469822        1.5629871567        0.0491392867
 H         -4.0405944034       -0.0280681487       -2.9203595155
 H         -6.3835855026       -0.5216409977       -3.4947792943
  58
        -89.01629701
 C         -6.7972159126       -1.6332814002       -1.4552889212
 C         -5.8425601868       -2.6342212346       -1.3928710616
 C         -4.5259918759       -2.3203701381       -1.1101503866
 C         -4.1482820539       -1.0013281613       -0.8746918368
 C         -2.7415246418       -0.6829098748       -0.5726744252
 C         -1.7531490252       -1.1524640588       -1.4065599417
 C         -0.4061052865       -0.8430697370       -1.1718152418
 N          0.5562557666       -1.3032561128       -2.0091528229
 C          1.7853557483       -0.9799014240       -1.7517955010
 C          2.1453649296       -0.1931381288       -0.6146995524
 N          3.4650560632        0.0812528878       -0.3382507927
 C          4.4127101204        0.1643764312       -1.3721290877
 C          5.6926095880       -0.3539003526       -1.1855019773
 C          6.6312577964       -0.2613154460       -2.1950197310
 C          6.3077509586        0.3412074554       -3.3999395622
 C          5.0371076735        0.8590590600       -3.5883689972
 C          4.0938996955        0.7787406057       -2.5815257503
 C          3.8662064246        0.3848406602        0.9781397877
 C          4.7989449683        1.3920902551        1.2079501272
 C          5.2160373718        1.6695969014        2.4961532348
 C          4.7051616998        0.9548024091        3.5663089809
 C          3.7732290337       -0.0444523544        3.3394388858
 C          3.3565617736       -0.3345334276        2.0546099778
 N          1.2293170616        0.2480402842        0.2211043270
 C         -0.0570704397       -0.0504622985       -0.0462204689
 C         -1.0768950846        0.4213521409        0.7968714656
 C         -2.3950397188        0.1199643927        0.5480480801
 C         -3.4306147391        0.6202164550        1.4699881542
 C         -4.3685637685       -0.2402296698        2.0335435246
 C         -5.3304664147        0.2449353719        2.8994070228
 C         -5.3720408492        1.5936307834        3.2117468052
 C         -4.4368529644        2.4549825900        2.6635729866
 C         -3.4685959271        1.9711486900        1.8033186535
 C         -5.1128879616       -0.0003547220       -0.9502399367
 C         -6.4269545558       -0.3162185513       -1.2396924479
 H         -7.8259309824       -1.8785691669       -1.6744443603
 H         -6.1248660350       -3.6631128723       -1.5633243505
 H         -3.7824744098       -3.1025150444       -1.0504087687
 H         -1.9973302912       -1.7448467190       -2.2754545672
 H          2.5434939838       -1.3673658685       -2.4198909427
 H          5.9410907704       -0.8260580171       -0.2464322133
 H          7.6200715777       -0.6673581994       -2.0417719361
 H          7.0432376642        0.4101516163       -4.1867722516
 H          4.7800684088        1.3385228350       -4.5211528041
 H          3.1090231834        1.2001473885       -2.7221848099
 H          5.1926395473        1.9559963747        0.3748863382
 H          5.9400161866        2.4533113702        2.6640567505
 H          5.0311504567        1.1751873343        4.5716063509
 H          3.3727987564       -0.6088781435        4.1685847581
 H          2.6358355334       -1.1184391255        1.8816408036
 H         -0.7954491997        1.0147282291        1.6535898865
 H         -4.3345966489       -1.2940434121        1.7993346641
 H         -6.0523490471       -0.4324428115        3.3316618622
 H         -6.1294904779        1.9719478239        3.8822843077
 H         -4.4625250549        3.5075664257        2.9060205791
 H         -2.7445382702        2.6445170218        1.3670228545
 H         -4.8271658631        1.0292287589       -0.7920233311
 H         -7.1662533850        0.4692546763       -1.2967832859
