  53
        -84.77601577
 N          5.5994899071        3.3821290050        0.3876244963
 C          4.5090405123        3.0164640253        0.2266197503
 C          3.2200698983        2.5695963730        0.0069939489
 C          2.2246109074        3.4458876446       -0.5635719874
 C          0.9505270165        3.0180662036       -0.7416080781
 C          0.5707657374        1.6889043505       -0.4196613321
 N         -0.6739784741        1.1984781391       -0.7606613283
 C         -1.8902820031        1.7503201716       -0.4076396074
 C         -2.1628823816        2.9597785708        0.2173451235
 C         -3.4792042468        3.2492389020        0.5282708046
 C         -4.5064227930        2.3529267605        0.2281060316
 C         -4.2420705269        1.1349986387       -0.3714190345
 C         -2.9285841436        0.8188641301       -0.6890851085
 C         -2.3011465085       -0.3347421480       -1.2613703749
 C         -2.7696608014       -1.5526848919       -1.7340630991
 C         -1.8656461399       -2.4401536013       -2.2911377644
 C         -0.5165787773       -2.1123189529       -2.4199700708
 C         -0.0259052676       -0.9074735763       -1.9472875198
 C         -0.9129177536       -0.0480160133       -1.3171159729
 C          1.5531945989        0.8248444079        0.2024011435
 N          1.1524710612       -0.4279105719        0.6639971707
 C          1.7367389649       -1.6310928009        0.3264381827
 C          2.9078685691       -1.8781215071       -0.3782268189
 C          3.2420470087       -3.1944653039       -0.6364781882
 C          2.4314983185       -4.2450442923       -0.2102922942
 C          1.2517334706       -4.0058742257        0.4713605828
 C          0.8949500097       -2.6936613631        0.7412553012
 C         -0.2407496077       -2.0902525217        1.3822471331
 C         -1.3810174813       -2.5964154995        1.9872846637
 C         -2.2799138181       -1.7087697891        2.5522478129
 C         -2.0323899848       -0.3388576771        2.5546318774
 C         -0.8996249885        0.1869487009        1.9597692968
 C         -0.0323426177       -0.6927442418        1.3285116434
 C          2.8382297128        1.2611247117        0.3843218263
 H          2.5246217451        4.4419972945       -0.8483203025
 H          0.2180621194        3.6624781273       -1.2036778533
 H         -1.3746184645        3.6527254318        0.4678246866
 H         -3.7151585479        4.1827840750        1.0151791793
 H         -5.5226188965        2.6148855102        0.4813098826
 H         -5.0372309459        0.4362519710       -0.5811903480
 H         -3.8188212728       -1.7970957870       -1.6718172099
 H         -2.2113768633       -3.3949957389       -2.6567696119
 H          0.1578860770       -2.8048114834       -2.8991992359
 H          1.0116092188       -0.6414837838       -2.0809157585
 H          3.5370563984       -1.0718547913       -0.7222342123
 H          4.1490273111       -3.4113074700       -1.1799207078
 H          2.7287225646       -5.2601115786       -0.4258333634
 H          0.6155391822       -4.8202791784        0.7818626086
 H         -1.5585012844       -3.6602758346        2.0182653054
 H         -3.1787321538       -2.0824603237        3.0182604924
 H         -2.7330820945        0.3284924496        3.0326630022
 H         -0.6955117325        1.2460558291        1.9960620743
 H          3.5593662779        0.6326392785        0.8842071870
  53
        -84.77599505
 N          5.0973808539        3.9462076434        1.1466007304
 C          4.1903827886        3.3707843244        0.7050390436
 C          3.0917506599        2.7061879941        0.1947692402
 C          2.5788255398        3.0308339078       -1.1153952323
 C          1.5276022607        2.3490032616       -1.6325331719
 C          0.8722606044        1.3346172598       -0.8862707015
 N         -0.3026167180        0.7649363791       -1.3340761228
 C         -1.4223079505        0.5255807324       -0.5537481302
 C         -1.7512039501        1.0504063495        0.6868559819
 C         -2.9434176136        0.6500201556        1.2645790751
 C         -3.8006803643       -0.2322239519        0.6081470734
 C         -3.5140460192       -0.6987412260       -0.6627886127
 C         -2.3272023067       -0.3042239591       -1.2645191949
 C         -1.7402846449       -0.5324950259       -2.5511551768
 C         -2.1316822854       -1.2598571646       -3.6663475329
 C         -1.2863251532       -1.3063543470       -4.7600241195
 C         -0.0526884034       -0.6533308106       -4.7488006508
 C          0.3578189238        0.0823065931       -3.6517894972
 C         -0.4959261193        0.1572558741       -2.5594441756
 C          1.4169203263        0.9711952170        0.4058479909
 N          0.8809718437       -0.1265050313        1.0769642771
 C          0.5300540743       -1.3291450857        0.4894314297
 C          0.8856664759       -1.8359180167       -0.7520519698
 C          0.3980929660       -3.0812776369       -1.1046690500
 C         -0.3964721036       -3.8197587392       -0.2320371904
 C         -0.6965568181       -3.3481367017        1.0338500189
 C         -0.2212201139       -2.0999834710        1.4063524713
 C         -0.3005320857       -1.3271306988        2.6153552481
 C         -0.9100686251       -1.5363134230        3.8428258007
 C         -0.8156027198       -0.5483198759        4.8065981117
 C         -0.1388153023        0.6430533597        4.5519870616
 C          0.4779631159        0.8739231374        3.3365018716
 C          0.4072309332       -0.1232496923        2.3722073496
 C          2.4808796031        1.6593492784        0.9241812590
 H          3.0501754625        3.8309914715       -1.6639867646
 H          1.1217777814        2.6197607368       -2.5954142821
 H         -1.1093135555        1.7635878183        1.1810962100
 H         -3.2137516120        1.0336634235        2.2361493682
 H         -4.7162703556       -0.5339849204        1.0936116632
 H         -4.2003890197       -1.3502652716       -1.1812165732
 H         -3.0744207642       -1.7848713360       -3.6720350649
 H         -1.5762431012       -1.8660418597       -5.6363797701
 H          0.5942769646       -0.7265422259       -5.6092442240
 H          1.3200251958        0.5710087758       -3.6471986029
 H          1.5317460450       -1.2851431121       -1.4183275161
 H          0.6453831179       -3.4877594480       -2.0734355958
 H         -0.7643847906       -4.7853523724       -0.5436619244
 H         -1.2830223852       -3.9384791788        1.7207839635
 H         -1.4518926120       -2.4492339363        4.0357866669
 H         -1.2796643833       -0.6945819635        5.7701663452
 H         -0.0943550183        1.4018010920        5.3183385129
 H          0.9904998609        1.8041597587        3.1457477094
 H          2.9121511999        1.3622572114        1.8678600509
  53
        -84.77555275
 N          5.2140541027        3.7735332685        1.0630467610
 C          4.2597240085        3.2546005849        0.6527312656
 C          3.1065329860        2.6587228927        0.1780489439
 C          2.5091939600        3.0854854483       -1.0637110946
 C          1.4196139772        2.4466930556       -1.5558523866
 C          0.8023979861        1.3785670742       -0.8520760863
 N         -0.3537693583        0.7988776719       -1.3340670205
 C         -1.4552765305        0.4338371993       -0.5799802287
 C         -1.8175016494        0.8366414136        0.6977480242
 C         -2.9713290225        0.3036294926        1.2430916574
 C         -3.7652457484       -0.5876858267        0.5201454211
 C         -3.4588227441       -0.9219299679       -0.7869302197
 C         -2.3105760723       -0.3916582121       -1.3574177586
 C         -1.7198771090       -0.4727667910       -2.6596286497
 C         -2.0803047983       -1.1179486389       -3.8345502819
 C         -1.2444127722       -1.0168459179       -4.9322112558
 C         -0.0483647602       -0.3022446527       -4.8648563541
 C          0.3316976004        0.3511040984       -3.7051444337
 C         -0.5176786231        0.2848575670       -2.6098859050
 C          1.3986496551        0.9498450641        0.3953510007
 N          0.8702191725       -0.1390076427        1.0869402737
 C          0.4504954738       -1.3355459871        0.5381060429
 C          0.6973808001       -1.8624177463       -0.7221349414
 C          0.1475859554       -3.0940314814       -1.0265566347
 C         -0.6018050922       -3.8030665597       -0.0907574087
 C         -0.7913819590       -3.3151498398        1.1900642188
 C         -0.2533616113       -2.0797377811        1.5153335436
 C         -0.2313463940       -1.2944455253        2.7183131848
 C         -0.7625335031       -1.4748413922        3.9866157556
 C         -0.5874879556       -0.4749983759        4.9270944589
 C          0.0890290380        0.7006585418        4.6096430091
 C          0.6293860155        0.9018476986        3.3522955231
 C          0.4829920227       -0.1098752783        2.4129135749
 C          2.5087114902        1.5896816308        0.8823090861
 H          2.9475685843        3.9235815192       -1.5821576697
 H          0.9542103200        2.7908753281       -2.4669640352
 H         -1.2261203495        1.5519826836        1.2486037736
 H         -3.2626736367        0.5876127020        2.2424049630
 H         -4.6480393379       -1.0005203930        0.9840061784
 H         -4.0993556783       -1.5781464617       -1.3557409227
 H         -2.9923158634       -1.6926024516       -3.8835439623
 H         -1.5117083425       -1.5083544580       -5.8554366725
 H          0.5949425774       -0.2597995472       -5.7300731643
 H          1.2691791880        0.8831177978       -3.6596828615
 H          1.3040226298       -1.3355882012       -1.4425415212
 H          0.3092529167       -3.5141298518       -2.0074703257
 H         -1.0226451255       -4.7579136075       -0.3664925463
 H         -1.3431563617       -3.8823602299        1.9237150695
 H         -1.3073750628       -2.3741577340        4.2289040885
 H         -0.9892563595       -0.5990998654        5.9212709357
 H          0.1930040162        1.4721822370        5.3571583503
 H          1.1397482066        1.8218833827        3.1126368872
 H          2.9793861317        1.2357751265        1.7868100485
  53
        -84.77541896
 N          4.9912139054        4.0912515383        1.2036005235
 C          4.1264776908        3.4675203639        0.7428928307
 C          3.0768024382        2.7474470112        0.2063691606
 C          2.6555666631        2.9714670884       -1.1577295497
 C          1.6365212875        2.2567269875       -1.6959420105
 C          0.9346380122        1.3009873715       -0.9173530921
 N         -0.2610759506        0.7469598405       -1.3312993057
 C         -1.3831143798        0.6318133643       -0.5246407299
 C         -1.6702593878        1.2858179622        0.6630113598
 C         -2.8786255275        1.0084630561        1.2795450290
 C         -3.7857693681        0.1150794548        0.7129364532
 C         -3.5317507062       -0.4906282915       -0.5054204807
 C         -2.3307089526       -0.2187813115       -1.1467374994
 C         -1.7652482723       -0.5952606725       -2.4084047442
 C         -2.1955607581       -1.4125594170       -3.4435373005
 C         -1.3651973841       -1.5971255952       -4.5338350739
 C         -0.1106640745       -0.9879345990       -4.5993626515
 C          0.3394412184       -0.1646863301       -3.5838630534
 C         -0.4936678176        0.0395894855       -2.4918045723
 C          1.4244589413        0.9999359008        0.4137113508
 N          0.8817286094       -0.1098194893        1.0612355764
 C          0.6361409342       -1.3235768592        0.4421638845
 C          1.1141993102       -1.7978233139       -0.7701878623
 C          0.7253809571       -3.0651297487       -1.1655696321
 C         -0.0956753261       -3.8510322767       -0.3625122646
 C         -0.5275762539       -3.4036655520        0.8739891908
 C         -0.1517452078       -2.1347681824        1.2888918098
 C         -0.3720298674       -1.3714661511        2.4871523925
 C         -1.0827090885       -1.6106027368        3.6525310863
 C         -1.1197885019       -0.6227731118        4.6204384200
 C         -0.4669968021        0.5943806466        4.4328889419
 C          0.2507006282        0.8554413324        3.2811464754
 C          0.3011721195       -0.1358449588        2.3091218586
 C          2.4423635980        1.7303768449        0.9604363861
 H          3.1699557017        3.7273644892       -1.7300378524
 H          1.2971761041        2.4565632187       -2.7010326320
 H         -0.9858136195        2.0075429384        1.0817063908
 H         -3.1213375149        1.4984448665        2.2095880514
 H         -4.7141500484       -0.0860227857        1.2255540685
 H         -4.2549058609       -1.1538818278       -0.9546953171
 H         -3.1571314404       -1.8995305147       -3.3900620441
 H         -1.6850821397       -2.2298472479       -5.3478792474
 H          0.5198756524       -1.1650688957       -5.4569386426
 H          1.3144820109        0.2945811987       -3.6389209717
 H          1.7801634245       -1.2048170121       -1.3780893123
 H          1.0715355325       -3.4504362633       -2.1124052299
 H         -0.3820358628       -4.8336461648       -0.7049855634
 H         -1.1380722549       -4.0292331813        1.5067269489
 H         -1.6020142891       -2.5459223547        3.7942085057
 H         -1.6669457064       -0.7914836677        5.5355010455
 H         -0.5221609520        1.3485462584        5.2030814124
 H          0.7503422740        1.8019115098        3.1424462612
 H          2.8252407540        1.4900032755        1.9407350047
  53
        -84.77472639
 N          5.2550738579        3.7035612419        0.9865482120
 C          4.2810902694        3.1967376808        0.6091303002
 C          3.1037576628        2.6241762712        0.1643577735
 C          2.4443506305        3.1128569293       -1.0210876790
 C          1.3369531871        2.4890347519       -1.4911108082
 C          0.7565924186        1.3802989637       -0.8179203773
 N         -0.3870816051        0.7978325235       -1.3255570581
 C         -1.4877249101        0.3669489429       -0.6098305790
 C         -1.8633126347        0.6600247342        0.6948705170
 C         -3.0117441216        0.0704257532        1.1885521724
 C         -3.7908082310       -0.7712751632        0.3919579311
 C         -3.4745328336       -0.9939263215       -0.9359831537
 C         -2.3305195541       -0.4058087771       -1.4552467847
 C         -1.7308716689       -0.3839825505       -2.7554783156
 C         -2.0795501709       -0.9400812848       -3.9787195099
 C         -1.2352877414       -0.7534814908       -5.0591587951
 C         -0.0415441651       -0.0462814274       -4.9263633236
 C          0.3266293564        0.5185186456       -3.7162523067
 C         -0.5348897090        0.3738623769       -2.6390272106
 C          1.3940340172        0.9131973088        0.3948879711
 N          0.8815430851       -0.1706199084        1.1055301605
 C          0.4004954326       -1.3555752038        0.5862608730
 C          0.5568001804       -1.8928440546       -0.6848961723
 C         -0.0507691367       -3.1046020125       -0.9543669304
 C         -0.7721288216       -3.7863480594        0.0240575003
 C         -0.8677862992       -3.2938910342        1.3131268280
 C         -0.2675799551       -2.0790184537        1.6050888326
 C         -0.1509789285       -1.2963405895        2.8038992986
 C         -0.6067483636       -1.4667215575        4.1028538336
 C         -0.3467036298       -0.4749945037        5.0325018611
 C          0.3357923364        0.6841726069        4.6734962568
 C          0.7997031485        0.8755920366        3.3834789067
 C          0.5735565312       -0.1308112223        2.4553975460
 C          2.5312063407        1.5319635393        0.8502171788
 H          2.8505595036        3.9811563670       -1.5153319739
 H          0.8268139529        2.8730323717       -2.3615271125
 H         -1.2845768779        1.3339085654        1.3076823578
 H         -3.3116215011        0.2690228444        2.2057475551
 H         -4.6689267117       -1.2332336827        0.8166490502
 H         -4.1026817132       -1.6113468154       -1.5594653142
 H         -2.9900971781       -1.5103267840       -4.0793543293
 H         -1.4946447918       -1.1724106556       -6.0196549100
 H          0.6117874001        0.0603808217       -5.7784484314
 H          1.2655861081        1.0412532247       -3.6217725292
 H          1.1353456689       -1.3864746723       -1.4421769053
 H          0.0399353512       -3.5307061953       -1.9417124035
 H         -1.2446077945       -4.7238183707       -0.2264036235
 H         -1.3956767235       -3.8411694511        2.0787830409
 H         -1.1591489834       -2.3521328949        4.3770625698
 H         -0.6875286657       -0.5919117159        6.0500020413
 H          0.5061038603        1.4518311397        5.4127410711
 H          1.3123075243        1.7859502370        3.1143513619
 H          3.0369598346        1.1458278778        1.7219494566
  53
        -84.77462191
 N          5.6591622389        3.3601135419        0.2179858193
 C          4.5565683386        3.0062600589        0.1254486683
 C          3.2520476631        2.5769233748       -0.0222442904
 C          2.2282632189        3.4899354178       -0.4772065669
 C          0.9419930759        3.0809025631       -0.6162354413
 C          0.5876113940        1.7343421366       -0.3539372775
 N         -0.6206571789        1.1859275616       -0.7478696034
 C         -1.8837880428        1.5641926901       -0.3493763231
 C         -2.2804173868        2.6743143543        0.3838900500
 C         -3.6133444398        2.7749613974        0.7376563285
 C         -4.5356508553        1.7957596604        0.3648765539
 C         -4.1490473633        0.6847368559       -0.3626850038
 C         -2.8164767919        0.5562493050       -0.7254042661
 C         -2.0729399796       -0.4537226838       -1.4196498674
 C         -2.4078822277       -1.6488153759       -2.0421008669
 C         -1.4143659387       -2.3594068384       -2.6939034469
 C         -0.1061937765       -1.8844774067       -2.7558994975
 C          0.2540135602       -0.7026195995       -2.1299448864
 C         -0.7258831032       -0.0152144406       -1.4317194911
 C          1.5866218091        0.8506067139        0.2125566305
 N          1.1303021637       -0.3768099412        0.6992096565
 C          1.5463448701       -1.6300659963        0.3140930752
 C          2.6358484199       -1.9973118973       -0.4654227903
 C          2.7856428344       -3.3359672274       -0.7740250853
 C          1.8784597751       -4.2909379346       -0.3185570582
 C          0.7906011372       -3.9322315410        0.4576153385
 C          0.6184190616       -2.5962705810        0.7815241716
 C         -0.3848382037       -1.8780112704        1.5200417696
 C         -1.5165177132       -2.2554572565        2.2276059512
 C         -2.2516695233       -1.2758738022        2.8730704660
 C         -1.8578468298        0.0581095994        2.8421038806
 C         -0.7337397909        0.4571493595        2.1406458155
 C         -0.0229510256       -0.5144763654        1.4526459151
 C          2.8841652547        1.2566054942        0.3393084770
 H          2.5196230470        4.5022214115       -0.7097119018
 H          0.1865328724        3.7542260962       -0.9926982719
 H         -1.5706758981        3.4322569968        0.6781435347
 H         -3.9466422705        3.6241613215        1.3139965482
 H         -5.5686371118        1.9085442702        0.6574261035
 H         -4.8644060669       -0.0757801822       -0.6355329324
 H         -3.4246085696       -2.0098955344       -2.0248624750
 H         -1.6582374248       -3.2897759913       -3.1838230032
 H          0.6390767454       -2.4417388906       -3.3018257697
 H          1.2586452552       -0.3151966922       -2.2049609193
 H          3.3401465133       -1.2620429205       -0.8231380391
 H          3.6224778674       -3.6480879996       -1.3800683515
 H          2.0286559921       -5.3272203226       -0.5805946052
 H          0.0841857622       -4.6730940017        0.7990742148
 H         -1.8118673074       -3.2920467644        2.2779813558
 H         -3.1368641000       -1.5501942309        3.4262924817
 H         -2.4353441871        0.7967933314        3.3764511130
 H         -0.4099074004        1.4867373874        2.1421666952
 H          3.6249774546        0.6075998918        0.7815599108
  53
        -84.77427799
 N          5.6658082668        3.3514564483        0.2162030880
 C          4.5618601719        3.0029645645        0.1207423978
 C          3.2556860825        2.5772254988       -0.0235215739
 C          2.2305906812        3.4976262483       -0.4608127023
 C          0.9430962055        3.0921102593       -0.6007971518
 C          0.5892141519        1.7430814563       -0.3536470202
 N         -0.6157242491        1.1916281786       -0.7549858248
 C         -1.8827313343        1.5458432278       -0.3465078265
 C         -2.2950031917        2.6466398703        0.3920357726
 C         -3.6266293030        2.7203518035        0.7572751893
 C         -4.5327475044        1.7241179746        0.3903614137
 C         -4.1310653479        0.6235544690       -0.3448151151
 C         -2.7997025790        0.5224634142       -0.7200491014
 C         -2.0437852850       -0.4703650096       -1.4256923924
 C         -2.3609730987       -1.6688509299       -2.0510387988
 C         -1.3599227030       -2.3563705469       -2.7158266629
 C         -0.0616537233       -1.8562381341       -2.7865330551
 C          0.2817911782       -0.6722348473       -2.1552882192
 C         -0.7054625305       -0.0069749719       -1.4461155352
 C          1.5885126711        0.8535044115        0.2050698536
 N          1.1247781763       -0.3709314799        0.6927278877
 C          1.5221552580       -1.6295764381        0.3060275175
 C          2.6011979154       -2.0118440233       -0.4806311904
 C          2.7320564923       -3.3530215960       -0.7874723425
 C          1.8166731567       -4.2957727393       -0.3234630169
 C          0.7389300996       -3.9220152675        0.4598406872
 C          0.5857057911       -2.5834615205        0.7820953235
 C         -0.4029623405       -1.8518641535        1.5273210225
 C         -1.5343696950       -2.2134485171        2.2436219583
 C         -2.2511867789       -1.2236226159        2.8941470816
 C         -1.8398983151        0.1048653404        2.8591291258
 C         -0.7165327312        0.4883929196        2.1478450730
 C         -0.0238114889       -0.4933871861        1.4558570149
 C          2.8877295047        1.2543970003        0.3282714204
 H          2.5222950927        4.5128022343       -0.6798678102
 H          0.1872080677        3.7714272139       -0.9654650072
 H         -1.5980961753        3.4182962759        0.6812199159
 H         -3.9717733880        3.5620457088        1.3376920286
 H         -5.5651209213        1.8156314188        0.6924704938
 H         -4.8336718464       -0.1500642309       -0.6140417881
 H         -3.3702556446       -2.0498482450       -2.0266014487
 H         -1.5900612810       -3.2887015254       -3.2086403369
 H          0.6891630349       -2.3962522270       -3.3420860356
 H          1.2790287421       -0.2664825293       -2.2330765497
 H          3.3125501476       -1.2862917571       -0.8440312449
 H          3.5606121154       -3.6769145831       -1.3986985269
 H          1.9521286238       -5.3344335415       -0.5841446039
 H          0.0256133596       -4.6532291506        0.8077213001
 H         -1.8430642100       -3.2459545328        2.2976343372
 H         -3.1352632709       -1.4857153045        3.4549871928
 H         -2.4033107435        0.8515845238        3.3973017292
 H         -0.3792970876        1.5136991360        2.1445117577
 H          3.6292093508        0.6002729264        0.7618895452
