74
 energy: -119.074896244972 gnorm: 0.000108063791 xtb: 6.7.1 (edcfbbe)
N           -6.60940981550774        0.12452488803936       -1.71833427867776
C           -5.67413907273177       -0.51700774958890       -1.52954705040607
C           -4.54103196540639       -1.31423675805055       -1.29627160696084
C           -4.43241976062525       -2.58242404580819       -1.88459484801302
C           -3.34251347813088       -3.38365768633948       -1.63925027725834
C           -2.30913104862830       -2.95916833813538       -0.79050678192418
C           -1.09700006325807       -3.74856940475470       -0.59042710409891
C           -1.08909524659213       -5.15789925894750       -0.61151588511453
C            0.10713968138319       -5.83518989122479       -0.41929366955201
C            1.29017313115285       -5.16537446585482       -0.20380337232960
C            1.31956918674025       -3.74568102211144       -0.17798105708532
C            2.49564971460382       -2.98121703906216        0.10711280367982
C            3.63584422082652       -3.53209331486235        0.77847399158958
C            4.68468336154860       -2.75493459304637        1.16299793710908
C            4.70511599605087       -1.35664269095699        0.91716040615897
C            5.69362626112093       -0.55659332053632        1.46891999071725
N            6.52918189913003        0.09488022985135        1.93491727760917
C            3.60068396195236       -0.80377826761469        0.17582012256670
N            3.52907320927345        0.56436847419264       -0.09062476046117
C            2.40491929172122        1.33658605065360        0.13322204783240
C            1.20900388534975        0.99822187548765        0.75475395750506
C            0.23209339772334        1.97162620008933        0.85406331017912
C            0.43846715556607        3.25587293954897        0.35827035235022
C            1.64603881322148        3.61230801248258       -0.21943996152409
C            2.64026948040608        2.65300831513017       -0.32758400017299
C            3.98372122808787        2.66491084491685       -0.84866077496794
C            4.76625454186522        3.64099338098664       -1.44168666102793
C            6.03714753870926        3.29753564924347       -1.87332044096113
C            6.51510907808090        1.99718716359474       -1.73916598729495
C            5.75008520843835        1.00454518452374       -1.15553472041241
C            4.49095320576142        1.35299075732885       -0.68519190032626
C            2.56170206692524       -1.60627483661230       -0.20802579718122
C            0.09787604677080       -3.08513137848532       -0.38931569249022
C           -2.43701892035246       -1.70717944010354       -0.17984694086148
C           -3.51347850234026       -0.88134156797223       -0.43291946150103
N           -3.56123284587189        0.38340716700452        0.17325063326502
C           -3.43069253356993        0.62155618290356        1.52450694393321
C           -3.35492864324996       -0.28326235014877        2.57492425991987
C           -3.24081032944927        0.22683451040395        3.85487681505347
C           -3.21060708105807        1.59921186656882        4.08940685417129
C           -3.30440531861079        2.50496788177547        3.04714061781432
C           -3.41770562601876        2.01788616037667        1.75409731054450
C           -3.53065520416415        2.64215081468735        0.46234317224965
C           -3.53983816547059        3.96152153382323        0.03856848605608
C           -3.62577481381902        4.21882063597242       -1.31834280282057
C           -3.68822494790652        3.18065551076894       -2.24388597247127
C           -3.67863369362462        1.85725321039483       -1.84560703593096
C           -3.61627483444513        1.59432843926862       -0.48432322846232
H           -5.22178683910763       -2.91711983358448       -2.54160451855812
H           -3.26682587618537       -4.34142942404681       -2.13049155542064
H           -2.00760460790168       -5.70601667018832       -0.74975684474365
H            0.10747036824930       -6.91588880403659       -0.44003117108629
H            2.20356263888371       -5.72545832200685       -0.08208703511558
H            3.64619357283348       -4.58352858431009        1.01785507395666
H            5.52286014651469       -3.18510678452158        1.69173758530304
H            1.05165838171278        0.01170637196052        1.16422642249204
H           -0.70680351255400        1.73471692487419        1.33171797070640
H           -0.35502872107454        3.98322422081639        0.43894044577775
H            1.81285847190726        4.61689413668499       -0.57648935884746
H            4.39073485024263        4.64508608487983       -1.56654459956617
H            6.66502809994400        4.04626299108626       -2.33202189775914
H            7.50237515329242        1.75610722842145       -2.10190277567892
H            6.12403069150338       -0.00341881068509       -1.07127018894878
H            1.79076364298282       -1.15729553471468       -0.81505703381785
H            0.08234042928872       -2.00788581935393       -0.38669557655849
H           -1.67950193062279       -1.35682717346335        0.50511394277545
H           -3.39124842888079       -1.34800652222751        2.40038679698527
H           -3.17687440172810       -0.45388180204544        4.69026519783550
H           -3.11942952935585        1.95891584432598        5.10304123313437
H           -3.29189949159334        3.56782448325904        3.23384419224106
H           -3.47924958336948        4.76765719124902        0.75413394315673
H           -3.63865969329726        5.23981545542381       -1.66893052806447
H           -3.74358790110443        3.41348984849224       -3.29631539426078
H           -3.71688302127944        1.06055250659716       -2.57225400080468
