74
 energy: -119.164384528438 gnorm: 0.000073307166 xtb: 6.7.1 (edcfbbe)
N           -6.66084375346220       -2.86931057396670       -2.62711657394309
C           -5.75986964394795       -2.33289347478440       -2.16302564808948
C           -4.62234943819254       -1.66999972731875       -1.65066980211733
C           -3.35562456269112       -2.07204643244441       -2.07744210165997
C           -2.23089863072312       -1.39375738092480       -1.66126422206548
C           -2.34342722961798       -0.28893427383079       -0.81494948552727
C           -1.14608621554413        0.44941352425122       -0.38805297863327
C           -1.13961012371367        1.84233340451346       -0.37480834448327
C           -0.00000026980619        2.52981114102641       -0.00005163734008
C            1.13961425740098        1.84236623273497        0.37475212761971
C            1.14609053525615        0.44944766537249        0.38811673772188
C            2.34343223575307       -0.28887273243725        0.81505723693358
C            2.23090602417513       -1.39363746533417        1.66144829990258
C            3.35562990859688       -2.07192142236299        2.07763956346275
C            4.62235282341615       -1.66992183960877        1.65081184638128
C            5.75987640639552       -2.33280024692300        2.16319620643269
N            6.66080860160419       -2.86926233448392        2.62729531346594
C            4.74710816382033       -0.57813832718538        0.77409431573180
N            5.99725917953353       -0.17369593547123        0.30995210346196
C            6.49434114069324        1.11699524106275        0.36020011696745
C            5.92601623303447        2.26127253446713        0.89838585326126
C            6.65829460637403        3.43246112740144        0.84205572389505
C            7.92946928689722        3.46731648021836        0.27505763674687
C            8.51024477082037        2.32422106295951       -0.23790089084314
C            7.79318041729506        1.13637264679878       -0.19421438974593
C            8.08346469399459       -0.20912270936309       -0.60796673604232
C            9.17404660109938       -0.79976111876054       -1.23171536911659
C            9.11554795868230       -2.14680146574761       -1.52812332649164
C            7.98132669401004       -2.89723532168964       -1.23005328332440
C            6.88341131339098       -2.33079114885159       -0.61089743473150
C            6.95222221460685       -0.98696811227089       -0.27844684499934
C            3.60282282153694        0.10299845926069        0.37677047283160
C            0.00000095219669       -0.23501293090533        0.00006473871844
C           -3.60282190457811        0.10298853723873       -0.37672109733333
C           -4.74710970469795       -0.57815380828786       -0.77402905329918
N           -5.99726374596857       -0.17365057851350       -0.30994696810570
C           -6.95224836055192       -0.98684869752702        0.27851695026279
C           -6.88346872238529       -2.33064422606308        0.61108360785306
C           -7.98140149224933       -2.89701061480795        1.23028021073180
C           -9.11561154776223       -2.14652777826243        1.52826977069787
C           -9.17407976739120       -0.79951218653323        1.23174249701661
C           -8.08347943665872       -0.20895095257810        0.60795341367959
C           -7.79316639672980        1.13649929552994        0.19407468375820
C           -8.51021277902492        2.32436384532893        0.23762626394162
C           -7.92940924318806        3.46739749031999       -0.27543836716538
C           -6.65822145720713        3.43246621008520       -0.84240281508785
C           -5.92596261077953        2.26125943435257       -0.89860364634728
C           -6.49431774871284        1.11704602615048       -0.36031484194073
H           -3.27271369759574       -2.91356224941271       -2.74946945253309
H           -1.25781449622797       -1.70094389691227       -2.01289354405150
H           -2.02079037477057        2.38576929126231       -0.68161152444627
H            0.00000025269348        3.60963798779522       -0.00010162645527
H            2.02079352733752        2.38582928125088        0.68150996890801
H            1.25782668564725       -1.70077704388928        2.01313145286327
H            3.27272394471918       -2.91337702752823        2.74974189221501
H            4.95034497695346        2.24063252210076        1.36110159988174
H            6.23649650563811        4.33866807336312        1.25110637459592
H            8.46921536363604        4.40202298671404        0.24801720722799
H            9.50303683894144        2.34739060069847       -0.66065531255891
H           10.04465889650735       -0.21247981138207       -1.48121684637960
H            9.95487896332782       -2.62755882626219       -2.00773853388844
H            7.95617947594265       -3.94473858545013       -1.49009678897830
H            6.00479169574852       -2.92265998521040       -0.40223053282409
H            3.70059424560883        0.92710749476963       -0.31426031905713
H            0.00000460980258       -1.31538416050404        0.00010318677358
H           -3.70059814432028        0.92714746302636        0.31425054697812
H           -6.00486923820840       -2.92255515609684        0.40245157988022
H           -7.95629020643577       -3.94449809827427        1.49038981318929
H           -9.95495791554827       -2.62722583684427        2.00791727897169
H          -10.04467847645951       -0.21218964581300        1.48119394421165
H           -9.50299794595064        2.34760114232927        0.66039289382826
H           -8.46912858381412        4.40212146928478       -0.24847654782018
H           -6.23640235376985        4.33862412739670       -1.25153943613758
H           -4.95028860441225        2.24055234178092       -1.36131010743998
