72
 energy: -102.159089172383 gnorm: 0.000033271277 xtb: 6.7.1 (edcfbbe)
C           -0.35048799452123        5.31774752038287       -1.14565680745390
C           -0.70309711153174        3.87253710727487       -1.00518021052887
C           -1.68954963773520        3.45942365866410       -0.10808862852888
C           -2.03095041255158        2.13136575408845        0.03164867284861
C           -3.11537489840951        1.74920050268327        0.98890279130550
C           -1.33240514580213        1.13359782738159       -0.69536055637897
B           -1.44684280075964       -0.38143012800472       -0.32542247019902
C           -0.22247009587407       -1.22963704173797       -0.03537081483789
C           -0.26831339548993       -2.65182537556546       -0.14207113001593
C            0.82834756512773       -3.45829035732693       -0.06689254594709
C            2.08847671530535       -2.87730272985021        0.15778474650979
Br           3.64478832988248       -3.98893902484323        0.30837801604351
C            2.20494174433701       -1.50840273049959        0.32636235542683
C            1.09024279906664       -0.69074475105320        0.26446960085789
N            1.30013145165343        0.67971070179087        0.45835209298159
C            0.74471015384826        1.46251664009040        1.45222670056620
C           -0.13006650532639        1.10344590821502        2.46625436237233
C           -0.50351598360865        2.07738380722784        3.37381646080620
C           -0.01262582377855        3.37700854646668        3.28509645490480
C            0.88967380009807        3.73168731740442        2.29798095474345
C            1.27952613767915        2.76958570217709        1.37982676370095
C            2.23419235834427        2.75833574647429        0.30343047998220
C            3.08165252172325        3.71543803475844       -0.23024239137486
C            3.91829399081824        3.35368738198902       -1.27259864840740
C            3.91516295643347        2.05511594606967       -1.77701543429394
C            3.07760785101161        1.08379149197729       -1.26001159324859
C            2.23313766122047        1.44023832800124       -0.21512812164990
C           -2.88713847552385       -1.06155528267625       -0.28360144896782
C           -3.74589849281975       -0.94128137658755       -1.39075816702746
C           -3.32390738348278       -0.20425837084230       -2.62653692302846
C           -4.99039842452983       -1.54992375140585       -1.38114142078881
C           -5.43699877588569       -2.28480728063553       -0.29027208821651
C           -6.78785792011612       -2.93657469546667       -0.31012187582057
C           -4.59241387490480       -2.39706719608457        0.79874329308066
C           -3.33666139425215       -1.79788313700849        0.82145361804167
C           -2.55128988820044       -1.94271893292854        2.09409438279000
C           -0.43542984284800        1.56992705618742       -1.70468848967118
C            0.14985245006503        0.62115842002156       -2.70602944459112
C           -0.11213948185797        2.91046326953895       -1.81489727166128
H           -0.48839862643252        5.84106821079013       -0.20218492216520
H            0.68018311336512        5.43048910721655       -1.47446720285794
H           -0.99467276488680        5.79094446401416       -1.88909918400523
H           -2.19311226601067        4.20295859201727        0.49429966967900
H           -2.77177351672906        0.95944705571117        1.65123204106776
H           -3.98131413546443        1.36918492382857        0.44769043487014
H           -3.42468842226470        2.60506594347129        1.58418668422287
H           -1.23237303950380       -3.10251765805531       -0.32740159069812
H            0.74416513869542       -4.52879214424867       -0.18044407217980
H            3.16706580174390       -1.07415259052854        0.55964261370469
H           -0.49494584181561        0.09345582600812        2.54946832026636
H           -1.18403668067017        1.82297747544794        4.17273908145251
H           -0.32864247656101        4.11208751683097        4.01055858267049
H            1.29300024223814        4.73167358021039        2.24921459647820
H            3.08951031484980        4.72114330517046        0.16158995527983
H            4.58751906377968        4.08488132913226       -1.70149332770127
H            4.58151785334718        1.80059660656076       -2.58814030376968
H            3.08451183040381        0.07947912515532       -1.65517070803037
H           -2.45703205624156       -0.69003588773274       -3.07128447407584
H           -3.04734729475396        0.82071283864024       -2.38711353217526
H           -4.12699946271006       -0.18696654571029       -3.36024923843608
H           -5.62742546803774       -1.46165135121615       -2.25142574754899
H           -7.55441363363552       -2.22146691902240       -0.60629928624889
H           -6.80040415149947       -3.75520463576808       -1.03077966062575
H           -7.04147159553484       -3.33677627752819        0.66876656837941
H           -4.91605537642655       -2.95213268846217        1.66960037670775
H           -1.50602728294136       -1.69550234404034        1.94352439729516
H           -2.96347878190817       -1.28594794125326        2.86220117838881
H           -2.61480311837557       -2.96455571175840        2.46552740505442
H            1.15515032286663        0.92914437226701       -2.98516545149194
H            0.17149476580872       -0.39775090706034       -2.33039365821998
H           -0.45997229756496        0.63473630399357       -3.61092456893267
H            0.61141598687340        3.21751644467536       -2.55791146793334
