72
 energy: -102.159068108786 gnorm: 0.000082133615 xtb: 6.7.1 (edcfbbe)
C           -0.77615538641766        5.28359636951132       -1.18190827297895
C           -1.00855613583286        3.81585441862959       -1.02596048180475
C           -1.94481821295019        3.32721625671820       -0.11409291409551
C           -2.17482701937329        1.97595261722436        0.03374863893055
C           -3.21309906997204        1.51040938882192        1.00503462823069
C           -1.40677253031856        1.03525944414852       -0.69925353012112
B           -1.39865189401195       -0.48307196424295       -0.32563957557129
C           -0.10757729188275       -1.22982780791523       -0.04498097202684
C           -0.03785158001661       -2.65104809218697       -0.15070970122722
C            1.12231170409459       -3.36441678399743       -0.08767547257774
C            2.33264122432163       -2.68150159649866        0.12431713205295
Br           3.97645982021787       -3.66124709075727        0.26008398859520
C            2.33788750669689       -1.30759035972723        0.29245355553829
C            1.15916910072316       -0.58443266392107        0.24262150765423
N            1.25712800819960        0.79867670945501        0.43601897070324
C            0.65038251488072        1.53195784111967        1.43760421353794
C           -0.17753847043513        1.10001498823343        2.46245649281853
C           -0.62107040960195        2.03904423669452        3.37530364913565
C           -0.24497281288313        3.37595297531184        3.28021144919033
C            0.61197930815789        3.80566327947451        2.28248605298155
C            1.07195883258549        2.87957201087604        1.35975323115397
C            2.01105081189332        2.94846871279302        0.27190793740891
C            2.76952864642664        3.97317349036722       -0.27021305378765
C            3.62030079064536        3.68321368287212       -1.32348498231265
C            3.71902402083903        2.38920875754275       -1.83009775030878
C            2.97269689561852        1.35089381650115       -1.30380608730444
C            2.11434728618505        1.63498444031045       -0.24823506968660
C           -2.78022350061705       -1.27472641394710       -0.26633882722209
C           -3.65891377456984       -1.22320994975879       -1.36336136435769
C           -3.30645846483715       -0.46268854197120       -2.60655796949070
C           -4.85526967980174       -1.92124718735198       -1.33644668406979
C           -5.23276079342944       -2.68355752783155       -0.23828644710342
C           -6.54133704077042       -3.41691375009134       -0.23146675291801
C           -4.36818741186852       -2.73009151519594        0.83964047750643
C           -3.15941063554195       -2.04033760751876        0.84487713906124
C           -2.34945027685003       -2.12464441073208        2.10750730655043
C           -0.55878281435136        1.53966648332687       -1.71971433678805
C            0.09304228341030        0.63691761043209       -2.72250700569286
C           -0.34961566565123        2.90136398135210       -1.83942775115151
H           -1.03978440226779        5.81654640253108       -0.27143370160170
H            0.26540393942718        5.48030117911385       -1.42739227136359
H           -1.39066139772865        5.67669158543684       -1.99385947845169
H           -2.49977805635890        4.02898706614298        0.49317919155457
H           -3.58427722475906        2.34012106752582        1.60196814440291
H           -2.79874070834574        0.75321415518218        1.66493992244141
H           -4.05123977287846        1.05931880918460        0.47477827118359
H           -0.96367067329127       -3.17934608558560       -0.32600623726785
H            1.12570241541108       -4.43820858618440       -0.20164748496616
H            3.26320847324850       -0.79542225203237        0.51635132063052
H           -0.45322987587869        0.06247428299546        2.54999370251853
H           -1.26688090377321        1.72776300055089        4.18284127286706
H           -0.61425046191846        4.08199703226567        4.00932265870774
H            0.92671246605544        4.83669284328010        2.22906079028662
H            2.69898866923280        4.97562061939586        0.12375211661947
H            4.22107418257803        4.46792510580604       -1.75915770184999
H            4.39403333067523        2.19169754014120       -2.64988489399809
H            3.05866385327303        0.35087663480113       -1.70038949604439
H           -2.41220003343560       -0.88670395204283       -3.06028270745603
H           -3.10143757000767        0.58033990565219       -2.37302807886113
H           -4.11746502076822       -0.50577056489347       -3.33045611111471
H           -5.50776651414111       -1.88309452637139       -2.19888590059174
H           -6.63709408216843       -4.03346305857047        0.65923720820548
H           -7.37121544499050       -2.70993738862794       -0.25377108831816
H           -6.62560384761282       -4.05609962295077       -1.10994245463257
H           -4.63868200200859       -3.30533362757762        1.71552861625649
H           -2.32646874322499       -3.14913631698195        2.47642648207923
H           -1.32926299381202       -1.79446636674015        1.94492158348912
H           -2.80322976393940       -1.50452026846355        2.88260978854925
H           -0.54121391748178        0.56705442355405       -3.60769905798661
H            1.05170513207453        1.04259327252569       -3.03818767102461
H            0.23243921040381       -0.36643163183723       -2.33057602454485
H            0.33675939973784        3.26455626171529       -2.59237285216634
