55
 energy: -91.259922641951 gnorm: 0.000040725132 xtb: 6.7.1 (edcfbbe)
C           -0.00002346095244       -0.67282929889232        1.20341169451091
C           -0.00002294882119       -1.26379283222868       -0.17642034621272
C            1.20324679910957       -1.51226401870791       -0.84401059231290
C            2.51207576691170       -1.28152258241406       -0.19800942767745
C            2.87752371352841       -1.94888693379551        0.96710424062223
C            4.12171905302685       -1.73870309164848        1.52785142321032
C            5.02564200793410       -0.86156670800029        0.94390866955286
C            4.67324204784982       -0.18611256747183       -0.21980655231744
C            3.42166334080213       -0.40745570700627       -0.78080481377531
O            5.46896111947734        0.70292634315439       -0.89569596684760
C            6.61550825157496        1.20756026758627       -0.33998995576543
C            7.17675456585512        2.28932209605519       -1.01119340918987
C            8.34027199890530        2.87939074068182       -0.55305667035927
C            8.95348338223314        2.40031818373661        0.59219269046370
C            8.39999514681991        1.32862910730171        1.26855010333075
C            7.23831829347836        0.72503974946233        0.80683689940206
S            6.61501469479330       -0.67014780156458        1.71053351753326
C            1.19374984722273       -1.98016621452212       -2.15452568157055
C           -0.00000683632276       -2.21531947949199       -2.80974804071932
C           -1.19377089039657       -1.98023736119669       -2.15451475495788
C           -1.20328429265601       -1.51233108438967       -0.84400007482576
C           -2.51212002893852       -1.28164320208946       -0.19799427794003
C           -2.87752998090651       -1.94898617342595        0.96714385360986
C           -4.12171998194018       -1.73881690538019        1.52790963886450
C           -5.02567180767419       -0.86171204821255        0.94396440866489
C           -4.67331220734733       -0.18628764623918       -0.21978036469300
C           -3.42174270079738       -0.40762036974163       -0.78080060104613
O           -5.46906840624923        0.70271335378012       -0.89567689716148
C           -6.61553997987803        1.20743391132071       -0.33989170988398
C           -7.17676201503456        2.28922954194064       -1.01106036086183
C           -8.34021278481960        2.87937002044865       -0.55284749500318
C           -8.95337474253929        2.40034013304819        0.59244600330522
C           -8.39990827091536        1.32861912828089        1.26877021205684
C           -7.23830252195856        0.72495405876787        0.80697835781287
S           -6.61503508770308       -0.67029297792305        1.71060997524720
H            0.88576244713865       -0.06025733058786        1.35504416926765
H           -0.88593791345684       -0.06046915547104        1.35514021650474
H            0.00011388612620       -1.45374621050268        1.96243869380552
H            2.19554900970810       -2.64704114026081        1.42551998243993
H            4.41565624232046       -2.25949831733792        2.42657089951963
H            3.17031879099552        0.12853296054601       -1.68337614679067
H            6.67720026322367        2.64453406861530       -1.89916011475034
H            8.76277001751132        3.71323020045892       -1.09175001039883
H            9.85979395691011        2.85490896977212        0.96050342424156
H            8.86455806100363        0.93846569789003        2.16149151316055
H            2.13442901725963       -2.16555997506929       -2.65259060446908
H           -0.00000077064865       -2.57940415851669       -3.82652188400269
H           -2.13444343807171       -2.16568963017916       -2.65257032432187
H           -2.19552000787094       -2.64709449354356        1.42557741899981
H           -4.41561951137269       -2.25957942164153        2.42666043852681
H           -3.17042860750795        0.12834770741355       -1.68339245323463
H           -6.67724369150584        2.64440825875568       -1.89906121022102
H           -8.76268095052012        3.71325155452402       -1.09149996682669
H           -9.85961213916591        2.85501281533296        0.96083673545828
H           -8.86442574573862        0.93849896856381        2.16175452800704
