55
 energy: -91.162382561096 gnorm: 0.000053867004 xtb: 6.7.1 (edcfbbe)
C           -0.01510517328573       -0.67821913568373        0.85078447756557
C           -0.00980336822202       -1.87360370260806       -0.05957677215478
C            1.20335350603362       -2.46587392831842       -0.40415426694104
C            2.50008653033533       -1.86381690766300       -0.03733048579016
C            3.44940087284899       -2.60781355178052        0.66241839468577
C            4.67681189107959       -2.05963775084322        0.97233013160304
C            4.99465126562298       -0.76327759596764        0.58562989220286
C            4.06136494073637       -0.01115254603746       -0.12340930405875
C            2.82647380619639       -0.57039712657633       -0.42637826189979
O            4.24382314572026        1.27018090800664       -0.57194513053285
C            5.41509185296901        1.95071402688566       -0.38531825826663
C            5.44937225687764        3.23152805387770       -0.93023003027875
C            6.57554482866814        4.02307411783331       -0.80866817074348
C            7.68970762223050        3.54291989465647       -0.13843935058932
C            7.66600501713211        2.27292833359825        0.40595359945051
C            6.53639274633887        1.47273561289733        0.28897336052152
S            6.59354216553699       -0.13879757829509        1.02581254426044
C            1.23515234149557       -3.67563721831816       -1.10270028137072
C            0.05163696663962       -4.30192726491258       -1.46126188399261
C           -1.15323336869315       -3.72175820707992       -1.14366848834852
C           -1.22055374250182       -2.49010570353843       -0.46044761700457
C           -2.52443696339650       -1.92308052891059       -0.20702281241747
C           -3.63599671621107       -2.77977500312097        0.12753767060534
C           -4.87900706662640       -2.27620418961132        0.33947726914501
C           -5.13985733256473       -0.89374102391931        0.22403214166556
C           -4.04832310520225       -0.02616849667924       -0.13957434942361
C           -2.79036809155285       -0.55630000944089       -0.33138684041701
O           -4.17600041242360        1.30776837036113       -0.33544400390106
C           -5.33553040325333        1.98235439065242       -0.18256034240995
C           -5.28189296581641        3.36081188658622       -0.40712748273047
C           -6.40282198125028        4.14453777528859       -0.27643095079470
C           -7.63294508584745        3.56135693125528        0.08922597621244
C           -7.71151881696413        2.21216132557088        0.31159396979629
C           -6.57980820644195        1.39574085399331        0.18489415289138
S           -6.74909723424036       -0.31320404614833        0.44353755372460
H            0.04198733649820        0.25634770338006        0.29412173222210
H           -0.92430615854206       -0.66031079437505        1.44771234646172
H            0.84372318561416       -0.71432092576174        1.51870164232304
H            3.21581697105533       -3.61390739374894        0.97520433880412
H            5.41185568218561       -2.62893429243086        1.52115329933686
H            2.13131102044683        0.02832619686085       -0.99317355931145
H            4.56903925641821        3.58059304137479       -1.44720119757393
H            6.58037502882913        5.01284701457281       -1.23780144543779
H            8.57417814725700        4.15220709592956       -0.03838502284892
H            8.52285485881806        1.88022346661501        0.93215295345395
H            2.18769189852461       -4.11261274776435       -1.36297762526519
H            0.07799434410501       -5.23937287100446       -1.99834520586239
H           -2.07151159277047       -4.19340109730310       -1.46013815375930
H           -3.45733104460465       -3.83554218818367        0.25350596682782
H           -5.70126630708291       -2.92307901566382        0.60791027977402
H           -2.01558034616725        0.12495896526412       -0.64297252053260
H           -4.32855944209096        3.78338826419478       -0.68569760269009
H           -6.34308051962793        5.20632452127398       -0.45359110718719
H           -8.51031472135083        4.17989519285708        0.19148297485998
H           -8.64563600595797        1.74767476430499        0.58938409350472
