55
 energy: -91.260161218336 gnorm: 0.000070273845 xtb: 6.7.1 (edcfbbe)
C            0.00176930759932       -0.67484156604429        0.87689749570310
C           -0.00005492220306       -1.82520015575226       -0.08765447773572
C            1.20271167984615       -2.39392607444847       -0.51879080351022
C            2.51446103867370       -1.84198318118601       -0.12272662153195
C            3.45141511714911       -2.64720470279346        0.51823423454418
C            4.68831045999497       -2.13801394203219        0.86167562486614
C            5.02239899726073       -0.82288984946200        0.56777403341656
C            4.10110058137782       -0.01096936699390       -0.08574596833622
C            2.85721822491273       -0.52951130151928       -0.42321774295680
O            4.30037198752256        1.29700784888300       -0.44393518411124
C            5.50689368926040        1.92287520447159       -0.27538533338543
C            5.58076906006195        3.21326873621887       -0.79090620686336
C            6.74238995799166        3.95488716940157       -0.68021155541244
C            7.85120427805239        3.41187724657321       -0.05359054554595
C            7.78762762654723        2.12953320966304        0.45999259672077
C            6.62247188144892        1.38193773181535        0.35592418027430
S            6.62708432414273       -0.24719544832038        1.06118786067404
C            1.19170780817167       -3.51770809931670       -1.33995661731084
C           -0.00252674115002       -4.07966541853756       -1.74907828347282
C           -1.19544882729187       -3.51585818812460       -1.33879402048869
C           -1.20414214754821       -2.39200511983763       -0.51757571523547
C           -2.51492722029115       -1.83851098116541       -0.12073837085856
C           -3.45393634075776       -2.64401516006097        0.51692680335591
C           -4.69017125022004       -2.13371232826726        0.86098878972198
C           -5.02171034510481       -0.81709443725158        0.57088320710315
C           -4.09853677377193       -0.00492771975595       -0.07966824099331
C           -2.85520383106511       -0.52453379078688       -0.41754523825686
O           -4.29546850513859        1.30441056339176       -0.43427367800163
C           -5.50238541085749        1.93030913157689       -0.26855968939447
C           -5.57520979025369        3.22059980479321       -0.78447869691690
C           -6.73685326721924        3.96246801403729       -0.67567750579013
C           -7.84677537783295        3.41977522841415       -0.05074275382066
C           -7.78438328568051        2.13737675798678        0.46284250357085
C           -6.61920894409862        1.38954888034655        0.36070365564909
S           -6.62526135869137       -0.23962206104207        1.06584131812098
H            0.00431186362632        0.27852436032809        0.35022150812167
H           -0.88439055263375       -0.70485506244027        1.50682903400905
H            0.88710050911405       -0.70880919997195        1.50783681758385
H            3.20519158759517       -3.66949344003684        0.76080363579614
H            5.41608140246089       -2.75424363233421        1.36773297120370
H            2.16783394412612        0.11767305729007       -0.94187966722844
H            4.70241445518025        3.61186942474770       -1.27448039495716
H            6.77744640010000        4.95460151110349       -1.08435730665686
H            8.76339665827091        3.98040987683321        0.03787427282033
H            8.64044170647557        1.68810367125441        0.95335786260691
H            2.13178485392107       -3.94155635926081       -1.66208893303234
H           -0.00353399841581       -4.95193513297864       -2.38588540161953
H           -2.13644903705656       -3.93800082264017       -1.66045596320751
H           -3.20987800228163       -3.66757002139435        0.75631038349908
H           -5.41951568643980       -2.75029870552623        1.36433170240738
H           -2.16427852898981        0.12309458881382       -0.93357306578396
H           -4.69602824799859        3.61894207683368       -1.26676970356181
H           -6.77119046303891        4.96201169275454       -1.08030984510221
H           -8.75897742470337        3.98853047725929        0.03922780956095
H           -8.63810018851009        1.69615052931292        0.95483070005927
