  73
       -105.62025885
 C          1.3047670541       -4.4859924143        0.3993221564
 C         -0.1684489907       -4.6656234377        0.0556088480
 C         -0.8772530212       -3.3237773898       -0.1151198373
 C         -2.3487949090       -3.5040391134       -0.4840276323
 C         -3.0829883166       -2.1804688598       -0.7276613247
 C         -4.3542454198       -2.3811502837       -1.5627216349
 C         -4.0671197032       -2.6220374712       -3.0400840168
 C         -3.4333335432       -1.5147548424        0.6166428110
 N         -3.8115193045       -0.1365654769        0.4622237566
 C         -5.0833772440        0.3777277389        0.4512349456
 C         -6.2967786537       -0.2552527704        0.6517153544
 C         -7.4529911808        0.5243241019        0.5977600199
 C         -8.7058161500       -0.0906987717        0.7968229614
 N         -9.7254994690       -0.5928857256        0.9594387262
 C         -7.3990519435        1.9076322879        0.3490051708
 C         -6.1925303008        2.5356750705        0.1523522586
 C         -5.0209901263        1.7794515982        0.2020951679
 C         -3.6452875500        2.1028745619        0.0523545937
 C         -2.9556345554        3.2942644154       -0.2013931852
 C         -1.5901809456        3.2676150490       -0.2783838208
 C         -0.8665041619        2.0596526787       -0.1002759004
 C          0.5155182844        2.0670858095       -0.1636488537
 C          1.7412474629        2.0632043497       -0.2100794327
 C          3.1104496483        2.0732061879       -0.2500939254
 C          3.8045299228        3.2795106651       -0.5320245857
 C          5.1597041071        3.3217561901       -0.5721779191
 C          5.9482156179        2.1503678137       -0.3277190259
 C          7.3419812405        2.1802968123       -0.3613495468
 C          8.0875705250        1.0417129521       -0.1194352858
 C          7.4624476883       -0.1830202299        0.1686293620
 C          8.1988225796       -1.3623229107        0.4228516401
 C          7.5528972510       -2.5529574284        0.7049145432
 C          6.1764036474       -2.6176105636        0.7446288975
 C          5.3912223972       -1.4634259843        0.4971461051
 C          3.9903143297       -1.4924491414        0.5309454765
 C          3.2489647943       -0.3508971471        0.2852662145
 C          3.8712803130        0.8645485389       -0.0004104230
 C          5.2840306715        0.9276886053       -0.0415579710
 C          6.0447447464       -0.2383657066        0.2068584590
 C         -1.5494457264        0.8514917415        0.1489822618
 C         -2.9237594287        0.8874176160        0.2195358998
 H          1.7909183045       -5.4513543470        0.5199357763
 H          1.8143093249       -3.9409320353       -0.3930150942
 H          1.4127358593       -3.9289880008        1.3283418708
 H         -0.6604483935       -5.2354174144        0.8471912361
 H         -0.2567081294       -5.2401917005       -0.8691153027
 H         -0.7852498169       -2.7590041601        0.8155723778
 H         -0.3767575455       -2.7530731375       -0.9016570074
 H         -2.8597603556       -4.0588760915        0.3069086052
 H         -2.3981976548       -4.1095261176       -1.3899891308
 H         -2.4181576619       -1.5043545921       -1.2766856092
 H         -4.9217616973       -3.2221725519       -1.1569533454
 H         -4.9775025583       -1.4881151122       -1.4805988704
 H         -4.9991157558       -2.7389127182       -3.5876590732
 H         -3.5251402070       -1.7789659737       -3.4633523964
 H         -3.4733165368       -3.5201549932       -3.1896993147
 H         -4.2562605703       -2.0543107381        1.0903801765
 H         -2.5705470960       -1.5574247494        1.2879513292
 H         -6.3727885642       -1.3150424296        0.8431891386
 H         -8.3227538578        2.4657537259        0.3160221418
 H         -6.1469944254        3.5971073880       -0.0373896529
 H         -3.5000601838        4.2174206361       -0.3308803686
 H         -1.0317592081        4.1712818825       -0.4718783668
 H          3.2180825714        4.1686743515       -0.7154760140
 H          5.6754609056        4.2458408043       -0.7893082105
 H          7.8411704402        3.1136672512       -0.5803206278
 H          9.1666383994        1.0843524364       -0.1492955792
 H          9.2774754726       -1.3194630854        0.3938902028
 H          8.1359777993       -3.4424264712        0.8967125865
 H          5.6753084330       -3.5485044660        0.9651587950
 H          3.4917646232       -2.4238485173        0.7546530231
 H          2.1694904403       -0.3896852779        0.3148882868
 H         -0.9870935542       -0.0601436713        0.2785258745
