73
 energy: -105.686763108322 gnorm: 0.000045551781 xtb: 6.7.1 (edcfbbe)
C            1.32430401226351       -4.47430718409686        0.56790408762774
C           -0.13888909780863       -4.65860331362093        0.18605587684763
C           -0.84050947075458       -3.31916484643891       -0.02762718134874
C           -2.29965253898472       -3.50410942994443       -0.44087796777015
C           -3.02847427872526       -2.18259638516174       -0.71075705987877
C           -4.27044022931180       -2.38578842471649       -1.58806912566675
C           -3.93236550882815       -2.63027461747944       -3.05397692448991
C           -3.42464388289437       -1.51837533764167        0.62125890869185
N           -3.81383632297607       -0.14446591188488        0.45466346771358
C           -5.09053004984352        0.35644089092306        0.41553521692963
C           -6.30313102691873       -0.29164884150294        0.58353463096787
C           -7.46339741678895        0.47440114702514        0.50245071513343
C           -8.71533377444249       -0.15766741687984        0.66657419427067
N           -9.73128143921172       -0.67373169167125        0.79951632859890
C           -7.42061620717563        1.85717075634652        0.26007226775116
C           -6.21368481171537        2.49886985685492        0.09632194822317
C           -5.04039125244346        1.75616802287398        0.17305249583588
C           -3.65585674965730        2.09531766025841        0.05574622891148
C           -2.97547166332297        3.28748001849298       -0.17678145872452
C           -1.60158497360844        3.26784654988960       -0.22929050713437
C           -0.88665388111752        2.06925210291980       -0.04884848197640
C            0.52035067248812        2.08151599236383       -0.10726333124401
C            1.72902663375227        2.07092050900354       -0.15491233432816
C            3.13342571622858        2.08224546318346       -0.21846635461104
C            3.79677362596195        3.27205947047867       -0.53298368575304
C            5.17016028924804        3.31721335666261       -0.60732380359823
C            5.94059538151257        2.17426316330603       -0.36987729755628
C            7.36249232946907        2.19097439270364       -0.44144807170399
C            8.09143608635190        1.07416579828268       -0.20819479647095
C            7.46343675162489       -0.16293956657218        0.11974096526432
C            8.19430981090763       -1.32670798033717        0.36504821467703
C            7.55284871195614       -2.51031498929673        0.68169255807821
C            6.17365552010365       -2.56400925234298        0.76236692178722
C            5.40182966609428       -1.42505588824504        0.52500234573449
C            3.97909621743973       -1.44225554092771        0.59966221934409
C            3.24851665622641       -0.32750745183806        0.36092672251584
C            3.87429252732010        0.90788176387205        0.03043889166356
C            5.28634401231446        0.95900235408247       -0.04711448046468
C            6.04948880281251       -0.20844770521170        0.19867097379560
C           -1.55094210650385        0.86653909699872        0.18498623353454
C           -2.93416975959020        0.88874118170914        0.23336366441572
H            1.80523482079951       -5.43780321438136        0.71997557698341
H            1.85641756879810       -3.94459046850857       -0.21990811050885
H            1.40744457709397       -3.90003845073348        1.48886887482822
H           -0.65385694762207       -5.21410022129714        0.97322258786348
H           -0.20191008788293       -5.24906823196322       -0.73070695126279
H           -0.77764130250227       -2.74049731268748        0.89694073817701
H           -0.31447856506040       -2.76041431951473       -0.80602240515935
H           -2.83340807161569       -4.05733319024025        0.33608119474579
H           -2.32011002897046       -4.11290295229361       -1.34568455641260
H           -2.34722248215976       -1.50544622698155       -1.23778976937958
H           -4.85169025865356       -3.22583017350247       -1.20005483014760
H           -4.89603276987861       -1.49242582185559       -1.52969393829121
H           -4.84494190460501       -2.74185680899315       -3.63444664954878
H           -3.37009120454051       -1.79117232954200       -3.45837661506682
H           -3.33934403635303       -3.53239204900346       -3.18137520123426
H           -4.25460190974192       -2.06652247803668        1.07236409646746
H           -2.58088541144034       -1.55083217281816        1.31696295391187
H           -6.37143590950869       -1.35318479544369        0.76843396045105
H           -8.34873619431144        2.40589584451038        0.20517772610526
H           -6.17562031219356        3.56153027495352       -0.08846811747627
H           -3.52045428838969        4.20939587338233       -0.31272541084660
H           -1.04740958967373        4.17695397939739       -0.40904376644114
H            3.21068830193190        4.16076606508613       -0.71878248843850
H            5.66746546406302        4.24498168218461       -0.85235097859579
H            7.84769095678997        3.12482864430604       -0.68878953977915
H            9.17057981942077        1.09746876907865       -0.26555163745835
H            9.27281214458717       -1.29372936939706        0.30485706956023
H            8.13521064190563       -3.40119153620540        0.86804155709513
H            5.67936822098819       -3.49249476229843        1.01071178069256
H            3.49631471025462       -2.37466460838207        0.85448873079621
H            2.16948716594906       -0.34790198444398        0.41804863140666
H           -0.98646989247313       -0.04320567177079        0.32084817989794
