68
 energy: -99.085835581015 gnorm: 0.000041840128 xtb: 6.7.1 (edcfbbe)
C           -7.05176518162981        0.72776548252718        0.42485994720847
C           -6.24214676792023        0.02362024751815        1.30166332056634
C           -4.87203138509000        0.00414893175496        1.12160685896861
C           -4.28750244143903        0.69123005482382        0.05898641019651
C           -2.82591329847251        0.70343926680605       -0.12355225406928
C           -2.07538344161437       -0.41944657938547       -0.05312706973099
C           -2.67091119179535       -1.76576414828432        0.00425901402574
C           -2.18060574902440       -2.71051691124742        0.90435577654205
C           -2.72134192337592       -3.98177769456741        0.95486445303122
C           -3.75068971535111       -4.33511665950688        0.09765183490858
C           -4.23266731319682       -3.40946866190972       -0.81387610407192
C           -3.69826774416693       -2.13572817317582       -0.86181825150883
C           -0.60560800900658       -0.38236278088373       -0.02065950216754
C            0.14454159555531       -1.26866548772963       -0.79334224771069
C            1.52287107009961       -1.24851812325315       -0.76199805585474
C            2.19878573158485       -0.35515905903335        0.07059474990905
N            3.59589501878769       -0.33359758351830        0.11234149160612
C            4.27019470164415        0.88291871802572        0.27990667511237
C            5.41817493099402        0.95380651426816        1.06919430791299
C            6.07929766358258        2.15631442408517        1.23041124300689
C            5.60584751380141        3.30577463535546        0.61826381887310
C            4.46419178785279        3.24151282753042       -0.16452037292398
C            3.80146042739339        2.04196305804345       -0.33894538628525
C            4.32310268545977       -1.52493175065633       -0.00070694056735
C            3.85413924947232       -2.70075721603517        0.58564212418276
C            4.57640939717584       -3.87290812354658        0.47070711883712
C            5.77805542345895       -3.89291021951922       -0.21908747553750
C            6.25027782652029       -2.72725691451249       -0.80084890603619
C            5.53036785107321       -1.55233372262514       -0.69931259160039
C            1.45124726078395        0.51442511004688        0.86719080628421
C            0.07450651056335        0.50369779401602        0.81483265489002
C           -2.24018782680713        2.02912176339243       -0.38928113231369
C           -1.31838858399962        2.21296656665647       -1.41870217205488
C           -0.79710898045898        3.46607710615336       -1.67927974384722
C           -1.18457531418793        4.55619959127282       -0.91666389381192
C           -2.10886226182894        4.38689406357398        0.10116281434428
C           -2.63949796558206        3.13622451936187        0.35763361967223
C           -5.10938865604617        1.41137312837314       -0.80645553785326
C           -6.48032367426331        1.42232973650444       -0.62888263458768
H           -8.12287919705577        0.73940808071062        0.56536809632864
H           -6.68108702514453       -0.51090709816475        2.13206124127086
H           -4.24325999444240       -0.53653783697103        1.81404225659918
H           -1.37880889892334       -2.43577001192506        1.57568527098789
H           -2.33759708761331       -4.70079432533899        1.66473361292685
H           -4.17192274078892       -5.32924446050093        0.13607768374365
H           -5.02787525025173       -3.68263084980305       -1.49278211107590
H           -4.06923916502338       -1.42074413714918       -1.58166613622884
H           -0.36397209041336       -1.96487153191769       -1.44538270237113
H            2.08806899583047       -1.92602069105444       -1.38554651173066
H            5.78390382085605        0.06148505234934        1.55633209014032
H            6.96559037620905        2.19728327865923        1.84707324762197
H            6.12266199588465        4.24453254730203        0.75047301829531
H            4.08984961924314        4.13119658475468       -0.64987677903290
H            2.91597278235409        1.99279124946553       -0.95556632309433
H            2.92298291407318       -2.68615986391045        1.13329412668633
H            4.20215856798844       -4.77556562723523        0.93175191571171
H            6.34188361893066       -4.80989274798780       -0.30288178548624
H            7.18300555800970       -2.73402285269980       -1.34616725720074
H            5.89693086960548       -0.64705335805231       -1.16133635586789
H            1.96098326699033        1.19566297685471        1.53292988130977
H           -0.48732296501771        1.17440237949097        1.44793786056747
H           -1.02218568895016        1.36741048702125       -2.02243127502678
H           -0.08835293687819        3.59468216764012       -2.48513464829384
H           -0.77290570329650        5.53435369422164       -1.11892135260030
H           -2.41995096364150        5.23408488689680        0.69578930712405
H           -3.36127102292384        3.00692583405227        1.15228819231121
H           -4.66557540448001        1.95421282540736       -1.62957675894661
H           -7.10598347167296        1.97719761715887       -1.31363457221018
