68
 energy: -99.020355475017 gnorm: 0.000037561780 xtb: 6.7.1 (edcfbbe)
C           -6.28731342097582        0.33272491005194        2.41570078542367
C           -5.21398665731937       -0.53074230240566        2.59669972719983
C           -4.09257836428925       -0.42599633838539        1.80631057441170
C           -3.99355177198288        0.56451213773658        0.80758531682348
C           -2.83323446876423        0.64332052773113       -0.02561133980076
C           -2.04942149611715       -0.57928241668742       -0.25161850857913
C           -2.75716887492206       -1.76071490116363       -0.66548858469859
C           -2.32229228327950       -3.05167708651544       -0.31141416696324
C           -3.04014501684377       -4.16875292699231       -0.67951015009592
C           -4.21243419116260       -4.04485319393385       -1.41223526745398
C           -4.66669160184408       -2.77951295837059       -1.75970106713573
C           -3.95980483239496       -1.65749284827639       -1.38911595376732
C           -0.64503728596792       -0.53882401246022       -0.07592125850611
C            0.22848333435433       -1.44303969893833       -0.73050458601881
C            1.58843600998417       -1.33260712559750       -0.62356889895124
C            2.17261292775931       -0.31997475105905        0.15320285914507
N            3.55373334943452       -0.19376173926253        0.24060899370810
C            4.13918682074186        1.07585549455352        0.33245636158418
C            5.26317930822008        1.27812336119517        1.13414365898688
C            5.84128445271075        2.53014884100138        1.21708765572104
C            5.30779269379585        3.59796366548494        0.51270221337845
C            4.18955210035885        3.40262618157366       -0.28263871921684
C            3.60838787506531        2.15308269198129       -0.37860363193466
C            4.36888323816761       -1.33271855603223        0.21306415225375
C            3.97429426480013       -2.49811484432347        0.87145900360518
C            4.77996168745789       -3.61987308966261        0.84178618627771
C            5.98934303054621       -3.59774476320095        0.16505670621325
C            6.38713942828472       -2.44160220456613       -0.48783148759018
C            5.58545150136698       -1.31664294072068       -0.47007222276087
C            1.32422877565448        0.57500913681324        0.82294665991424
C           -0.03502477853962        0.47246329472618        0.70857539964103
C           -2.40297638968668        1.85537875453121       -0.64880133315204
C           -1.59770292354011        1.82434340914154       -1.80767591831055
C           -1.12847817936914        2.98377582796565       -2.38112029296061
C           -1.42986732094220        4.21972361817077       -1.82278075602368
C           -2.20970717231461        4.27508120733010       -0.67435585338892
C           -2.68962326200651        3.12190250626304       -0.09578892471434
C           -5.10095879983034        1.41939496843338        0.63136183889205
C           -6.22243767444501        1.30025603115977        1.42147523898332
H           -7.16776913698940        0.24596139145681        3.03509307084049
H           -5.25885324605284       -1.29007551712919        3.36485547476217
H           -3.25725795947128       -1.09227016910842        1.96487685477837
H           -1.43776988820655       -3.16152936825390        0.29924132600933
H           -2.69112287265344       -5.14899838028891       -0.38527437351031
H           -4.77094396552197       -4.92316042377654       -1.70073225790510
H           -5.58132858785694       -2.67316936021788       -2.32624546301675
H           -4.31573139427702       -0.67844867581431       -1.67656081800020
H           -0.18923094103719       -2.19086606086719       -1.38765673229533
H            2.22797572826121       -2.01145098575675       -1.16959165971897
H            5.67379585993727        0.44961312782064        1.69266642086948
H            6.70985888350881        2.67455594084365        1.84283658584265
H            5.76075764976103        4.57541601934658        0.58279302534258
H            3.77019450929624        4.22735101546018       -0.84013058238998
H            2.74329961228931        2.00104439203592       -1.00762151655706
H            3.03781891456803       -2.51205642444225        1.40968565236008
H            4.46522669407048       -4.51482766275673        1.35839355191364
H            6.61746739288298       -4.47556289175885        0.14678259617814
H            7.32541379949937       -2.41770902081417       -1.02252066089978
H            5.89213786299792       -0.42001972340843       -0.98860710771052
H            1.75633441648601        1.34551929569977        1.44520303999582
H           -0.66457692077435        1.15881718663659        1.25449980846001
H           -1.37283778130094        0.87049457425131       -2.26220722935844
H           -0.52244604145245        2.93136775087773       -3.27502788585772
H           -1.05641570234356        5.12787756415668       -2.27228823016932
H           -2.43297676255474        5.23170706765229       -0.22264952899099
H           -3.25097762547954        3.17930687068285        0.82533438572878
H           -5.08454021663040        2.14498165795563       -0.16890879372605
H           -7.06289719128621        1.96068825527456        1.25893169479319
