66
 energy: -109.729790157729 gnorm: 0.000058184688 xtb: 6.7.1 (edcfbbe)
O            0.54532853188801        5.52418135303413        1.34798310053634
S            0.27742763923026        4.83959272386998        0.11223687218976
O            0.15909598559191        5.61119542980170       -1.09568612664371
C            1.41005027221148        3.47757170860041       -0.12984224011575
C            1.71960589224859        2.68923391908065        0.98130744718333
C            2.08274977737588        1.37487729732141        0.80963149274681
C            2.13956486732444        0.83421559584202       -0.47902270497804
N            2.34858070535309       -0.56800190274767       -0.62757899183885
C            1.26310165698615       -1.33699924954915       -0.98287204517531
C            0.07686113629843       -0.75254546447884       -1.45601442992645
C           -0.99768590259981       -1.51293585141383       -1.84149219783158
C           -0.96212935426525       -2.91703702249886       -1.72806356350440
C            0.15380844833518       -3.51657458494211       -1.21427945776544
C            1.27718431414490       -2.76227873233336       -0.85407942771245
S            2.56123148708282       -3.61235320046940       -0.05936404692528
C            3.83491166026643       -2.43775485418061       -0.03721454608356
C            5.10345524890449       -2.85921027722372        0.37089732552158
C            6.14376122151391       -1.97370109100321        0.46814302534819
C            5.92525319926906       -0.60998203800217        0.16880558949085
C            4.68130405727739       -0.16954438291362       -0.19158860686475
C            3.58871624360193       -1.05177635639967       -0.30473002597688
C            1.94653737654468        1.65661082299946       -1.59612342994132
C            1.56383097309346        2.96654373439576       -1.41594101767666
C           -1.09499911737827        3.70830365548348        0.30218779498559
C           -1.62456576915667        3.11640943409740       -0.83755268204193
C           -2.24854362557286        1.89039271648412       -0.75066852222123
C           -2.32046539477325        1.23417534085030        0.48192466674928
N           -2.74613002435636       -0.09747846579160        0.55998663811165
C           -3.88507548161670       -0.64922967458092        0.01176482940793
C           -4.94080066433436       -0.02703588577883       -0.63900097383031
C           -5.98369985322241       -0.82005606323125       -1.07777461007304
C           -5.98736092553897       -2.19800946737632       -0.86950309058868
C           -4.94949692940083       -2.81932056108644       -0.20386750955261
C           -3.88825650395898       -2.04439282261172        0.24519279917294
C           -2.67540512559094       -2.34275754326576        0.95369168299146
C           -2.10205090134612       -3.51886982768168        1.41877477054249
C           -0.86241021570072       -3.45813247479030        2.02287359792660
C           -0.19013607693813       -2.24516465020840        2.15716482066118
C           -0.74306701887487       -1.06055692164495        1.71128466156601
C           -1.99837164512301       -1.11340465580946        1.12167543211585
C           -1.88107638305012        1.88337885483515        1.63823268398338
C           -1.26465343817072        3.11195959505728        1.54690894054099
H            1.63894086415635        3.12553196378960        1.96353544946011
H            2.29612327099718        0.74207041176342        1.65879164645584
H            0.00918082756889        0.32098384765320       -1.52616648809391
H           -1.88427739362024       -1.03527107625581       -2.22570426457556
H           -1.81566154704273       -3.50314415478202       -2.02635451358253
H            0.20002373095812       -4.58666475463640       -1.08126240946285
H            5.24287826598281       -3.90664793467878        0.59185916552505
H            7.12408818838944       -2.31007058812056        0.76313118010822
H            6.74604757245084        0.08648094138882        0.22631883528191
H            4.52447368018253        0.87404609242783       -0.41646055466768
H            2.06924586951785        1.24407717530197       -2.58657760064652
H            1.35473668609429        3.61212053704952       -2.25409679326913
H           -1.49987344914251        3.61626179907012       -1.78539193282095
H           -2.63003552614500        1.40635367093508       -1.63693429973169
H           -4.95219074760126        1.04196333128018       -0.78872904257371
H           -6.81644475757474       -0.36168696619905       -1.59019992231010
H           -6.82085243400534       -2.78287640659072       -1.22878604618729
H           -4.96026122091120       -3.88483947423097       -0.03013886340743
H           -2.61458851214871       -4.46135189206221        1.29948783969867
H           -0.39745326371696       -4.36137781304159        2.38878315254670
H            0.78656607657055       -2.23287939957284        2.62004395823001
H           -0.21158360256766       -0.12501593060188        1.80422819665691
H           -2.00528812964867        1.39883970731488        2.59505279992519
H           -0.88585199988102        3.61968511410731        2.41960269951712
