66
 energy: -109.813337700158 gnorm: 0.000064595850 xtb: 6.7.1 (edcfbbe)
O            0.26714014025131        5.47853364687575        1.36320666406418
S            0.06534182717588        4.78481730152257        0.12264756246982
O           -0.07464370762507        5.54432108909202       -1.08782544487462
C            1.28568011205810        3.47714284795276       -0.08791474537732
C            1.69669514103938        2.79086737493895        1.04106557289355
C            2.19208283433797        1.50722184537234        0.91521821549968
C            2.25811143490512        0.91342627847663       -0.34236448800315
N            2.57390160235829       -0.46609941663800       -0.42527503722360
C            1.55550980173151       -1.36279768668757       -0.76181487543380
C            0.34086773131298       -0.91366708769393       -1.28149091123258
C           -0.66475646468400       -1.79600761173047       -1.63513237352122
C           -0.48966415105686       -3.15725965385654       -1.48317838425454
C            0.69438217890242       -3.62116689710658       -0.94060558227942
C            1.69639537181894       -2.74025072193318       -0.56967455583008
S            3.10307041645206       -3.44629355908513        0.24180659199276
C            4.29182991709868       -2.15060931848136        0.03678605901058
C            5.62816727578966       -2.47865028923662        0.19579190738905
C            6.60744110519168       -1.50537932901001        0.10487963622469
C            6.23921705056952       -0.20027193698164       -0.16572682871099
C            4.90724710571859        0.12599835338802       -0.34643906881947
C            3.90501060505694       -0.83845205808520       -0.23824818284977
C            1.95887346544834        1.65749005864425       -1.48189642450971
C            1.45347662082032        2.93805025755348       -1.35009820400170
C           -1.25194287199285        3.57043047607961        0.27733192821147
C           -1.77021389316565        3.00996625337604       -0.87624422648081
C           -2.41112276447880        1.78757891944036       -0.81721344996531
C           -2.50727756385362        1.11423400024190        0.40153452295343
N           -2.98475561801045       -0.19451510781209        0.45317453893450
C           -4.12800985125692       -0.68855622480066       -0.14772343663006
C           -5.13908466806630       -0.00943277826376       -0.81061732601733
C           -6.20408677589626       -0.74879087588886       -1.29043254110308
C           -6.27125486918460       -2.12808363880385       -1.10945261293339
C           -5.27805204143562       -2.80516008321350       -0.42955338002726
C           -4.19725813769038       -2.08442438160443        0.06051932049414
C           -3.02134429369314       -2.44768745057930        0.80308704761679
C           -2.51465835832756       -3.65911059733787        1.25448715675021
C           -1.29526386790241       -3.66609088690929        1.90071131751736
C           -0.57741315657156       -2.48789876191926        2.08871154321927
C           -1.06519725937136       -1.26982717839112        1.65634194401247
C           -2.30017915875760       -1.25467285356091        1.02569650749069
C           -2.06179511142659        1.73287695220125        1.57133451420870
C           -1.42536402334338        2.95591727585153        1.50491916956817
H            1.58410574215234        3.25825640558861        2.00639085791639
H            2.48196889739524        0.93783933899809        1.78568621232456
H            0.16336620655998        0.14418849790704       -1.39487594143008
H           -1.58983944048964       -1.40840162050622       -2.03426640688832
H           -1.26779662554431       -3.84900658909581       -1.76246743438212
H            0.85083132115871       -4.67628171039232       -0.77708283136419
H            5.88604204954081       -3.50474396909118        0.40852119589462
H            7.64418809411863       -1.76797790510554        0.24365014487293
H            6.98769621576411        0.57307803290841       -0.24506526524026
H            4.63417812336006        1.14587547083169       -0.57096832083527
H            2.08069716080976        1.21051215201469       -2.45735841620871
H            1.15651229922471        3.51834844353606       -2.20952026382648
H           -1.63210413544161        3.52574476650673       -1.81358056979242
H           -2.78139190125399        1.32019283036648       -1.71684538955376
H           -5.10494609602150        1.06206328636235       -0.93842722741420
H           -7.00327084010605       -0.24469744452142       -1.81308078229031
H           -7.11920161896424       -2.67018990073524       -1.50023122114629
H           -5.33890036666994       -3.87169452123842       -0.27521053360223
H           -3.06181355393582       -4.57501701465225        1.09072865019689
H           -0.88028681087193       -4.59722088322117        2.25545819397904
H            0.38440458894764       -2.52931070139648        2.57750401350797
H           -0.49121071702936       -0.36415461983928        1.78683104219049
H           -2.19692049894677        1.23349386269502        2.51841504553992
H           -1.04154382206152        3.43942893466173        2.38929262546875
