66
 energy: -109.812850752744 gnorm: 0.000062836126 xtb: 6.7.1 (edcfbbe)
O            0.44046700917686        5.18712685224925        0.69924708413229
S            0.40276572795449        4.34889456425634       -0.46730396406567
O            0.47905526016612        4.95938834910141       -1.76578218749248
C            1.65709074231410        3.06637107531735       -0.34189309209791
C            2.19390602620170        2.52648885453848       -1.49419794661083
C            2.97449517142003        1.38644964159443       -1.41016248146398
C            3.19888276456448        0.79669217805902       -0.17170851956934
N            3.92789349699105       -0.42357395485211       -0.10842646241045
C            5.31359595499153       -0.34247070121141        0.02449265295304
C            5.91886137987034        0.90139275815022        0.20715598916558
C            7.29109651679483        1.02320510663436        0.33670010289519
C            8.09808748474065       -0.09813806180483        0.30257615501268
C            7.51498852532347       -1.34090263319640        0.12910729745726
C            6.14337791774197       -1.46472073027821       -0.01811622803116
S            5.52033828334932       -3.09759402969723       -0.30284860622726
C            3.78726478778052       -2.86565918169795       -0.02415985745994
C            3.02756602090365       -4.01577220179247        0.11346673223814
C            1.65386282965853       -3.94410249867804        0.26239143746856
C            1.04452804670662       -2.70407428207814        0.26813024935054
C            1.80200015644664       -1.55224269008702        0.14356828737092
C            3.19078180356746       -1.60212837967458        0.00770429233146
C            2.68916794230050        1.37505359884065        0.98876760848554
C            1.90720281433663        2.51137147798303        0.89959378996484
C           -1.02278476003890        3.26333009676466       -0.37731260729443
C           -1.31725884635977        2.47507357722361       -1.47490144854477
C           -2.28181961046592        1.49323699121532       -1.36914673671682
C           -2.94051283322921        1.29126172972914       -0.15423746412942
N           -3.86436108582343        0.25415358714821       -0.03124194829753
C           -5.13327997944176        0.34382470288963        0.51502886589107
C           -5.81568975135954        1.45539615464362        0.98598556150700
C           -7.10435128752080        1.27089415342607        1.45095137466011
C           -7.70861656195554        0.01613643991182        1.44144618718433
C           -7.04271973586918       -1.08883992013439        0.94958622564679
C           -5.74690370796454       -0.92809311926178        0.47748470127950
C           -4.79199886747174       -1.82821173213687       -0.10895897415554
C           -4.80613598387029       -3.19030955957468       -0.37822226306343
C           -3.68102283865657       -3.76668211942426       -0.93377996879316
C           -2.54691950703961       -3.00582925651651       -1.20614551689336
C           -2.51013304923077       -1.64803839805076       -0.94745390943752
C           -3.64687975315417       -1.05910094541369       -0.41364415607615
C           -2.65336110924492        2.11363136183406        0.93621979721114
C           -1.68872660923105        3.09675097090264        0.82185835171585
H            1.98863017618866        3.00466000864620       -2.43898258375184
H            3.39625188461916        0.93658892793859       -2.29612457730695
H            5.30585337002213        1.78863166295008        0.24247969906610
H            7.72238521240504        2.00364389467334        0.46823717946384
H            9.16807196026708       -0.01273234496896        0.40628855950495
H            8.11923392071643       -2.23446432137530        0.09200627851219
H            3.53142717420892       -4.96993190293851        0.08799094813835
H            1.07179315391010       -4.84618818886033        0.36441187699579
H           -0.02664332019913       -2.62200380171191        0.37306625890826
H            1.30048657975043       -0.59661290631094        0.14624825330930
H            2.89152536006975        0.91475020539191        1.94439362881282
H            1.48463516912171        2.97647445306230        1.77612081175579
H           -0.79477687504254        2.64988387748941       -2.40201471206939
H           -2.53735643072491        0.88064865560240       -2.22003224849768
H           -5.36518631558255        2.43631209101714        0.97844691950408
H           -7.65593182703641        2.12016225773937        1.82565751853325
H           -8.71610625081597       -0.08699096680329        1.81542303805411
H           -7.51689441668592       -2.05813882854988        0.92514430855308
H           -5.67893324071016       -3.78294441761408       -0.15048797702622
H           -3.67202977289452       -4.82372291606858       -1.15306478647018
H           -1.67483588242434       -3.48555235222333       -1.62563321245459
H           -1.61805909907811       -1.07272052020385       -1.14646323183143
H           -3.16355917999790        1.95325483885989        1.87359027871612
H           -1.43378713534948        3.73735376742135        1.65147736642237
