  44
        -70.31967484
 C          6.3938608436        1.0974496382       -0.6996522854
 C          5.9791220061        0.6107746524       -1.9295494995
 C          4.8066178270       -0.1144140390       -2.0251718516
 C          4.0512068422       -0.3772793806       -0.8898037864
 C          4.4651654578        0.1125049711        0.3414980303
 C          5.6331695510        0.8588670933        0.4291144640
 S          3.5777254435       -0.2085595785        1.8434422868
 C          1.8996011610       -0.0949204256        1.2828247855
 C          0.9683037896        0.4836042512        2.1357382933
 C         -0.3640049286        0.5423464171        1.7797156554
 C         -0.7898897442        0.0397050349        0.5519139425
 C         -2.2163887512        0.0832181810        0.1730286274
 C         -2.9376447367       -1.1144117767        0.0482261008
 C         -2.3533315038       -2.3847877292        0.2930821392
 C         -3.0789473777       -3.5296149080        0.1651345679
 C         -4.4377140036       -3.4815943171       -0.2093025099
 C         -5.0406474468       -2.2834932625       -0.4357857918
 C         -4.3210845995       -1.0672388306       -0.3109798227
 C         -4.9327360695        0.1642304536       -0.5216420130
 C         -4.2271336955        1.3565042527       -0.3970578824
 C         -4.8490064877        2.6133194460       -0.6119852877
 C         -4.1448319345        3.7720060098       -0.5031995304
 C         -2.7716810161        3.7377528370       -0.1834495320
 C         -2.1392081531        2.5517699426        0.0330903118
 C         -2.8405734289        1.3202762663       -0.0491252480
 C          0.1497160864       -0.5123514736       -0.3095076735
 C          1.4856916843       -0.5911231230        0.0540488867
 S          2.5996701576       -1.3793891677       -1.0796398246
 H          7.3083378357        1.6642899848       -0.6180574631
 H          6.5670986070        0.7957404606       -2.8151076250
 H          4.4689673686       -0.5017420257       -2.9741876283
 H          5.9409067395        1.2298398160        1.3947345505
 H          1.3020916561        0.8664930212        3.0878988700
 H         -1.0849810232        0.9721300501        2.4585690161
 H         -1.3167131190       -2.4314398778        0.5908699457
 H         -2.6183378608       -4.4880992396        0.3542154483
 H         -4.9919041142       -4.4034647615       -0.3060273504
 H         -6.0838612702       -2.2324914832       -0.7131845006
 H         -5.9802504118        0.1952849148       -0.7877033225
 H         -5.8990093934        2.6252843875       -0.8673763887
 H         -4.6252645560        4.7252612504       -0.6671928927
 H         -2.2236071418        4.6660566868       -0.1162550025
 H         -1.0848494820        2.5333270025        0.2657341368
 H         -0.1562638405       -0.8993774458       -1.2696411458
  44
        -70.31960840
 C          6.3129185367        1.5129395099        0.0087863082
 C          5.8826959283        1.7747940499       -1.2826489366
 C          4.7383855422        1.1686694797       -1.7657896945
 C          4.0273555918        0.2807400890       -0.9692202554
 C          4.4568540462        0.0208557862        0.3251691079
 C          5.5957800381        0.6476702652        0.8131663587
 S          3.6205990646       -1.1238632061        1.3915671499
 C          1.9281508160       -0.7659986020        1.0021241316
 C          1.0047129324       -0.7730119755        2.0396506881
 C         -0.3347852680       -0.5598162220        1.7838641458
 C         -0.7755981460       -0.3123130549        0.4852943636
 C         -2.2080641406       -0.0904107436        0.2041019383
 C         -3.1187630115       -1.1427753881        0.3854228381
 C         -2.7105879405       -2.4401228206        0.7923100441
 C         -3.6168616427       -3.4416666075        0.9626098658
 C         -4.9897527394       -3.2151263353        0.7330181048
 C         -5.4202349176       -1.9917862147        0.3224928920
 C         -4.5080326870       -0.9229145242        0.1278722045
 C         -4.9329722965        0.3260332785       -0.3131988486
 C         -4.0363544972        1.3717083652       -0.5074587228
 C         -4.4681303778        2.6446484067       -0.9612177918
 C         -3.5850005026        3.6650092008       -1.1317884840
 C         -2.2176001269        3.4721382594       -0.8455428440
 C         -1.7635047500        2.2649892644       -0.4098092973
 C         -2.6467319962        1.1667436659       -0.2389724191
 C          0.1554828480       -0.2787753759       -0.5448760709
 C          1.4986946579       -0.5150446308       -0.2939801565
 S          2.6083569280       -0.5144723150       -1.6786406520
 H          7.2053697438        1.9833342011        0.3914425931
 H          6.4365180187        2.4514366259       -1.9148247310
 H          4.3897484958        1.3603082966       -2.7689700894
 H          5.9162773723        0.4318814763        1.8209135632
 H          1.3510594186       -0.9646507426        3.0436025745
 H         -1.0475020008       -0.5760404771        2.5944963827
 H         -1.6599272174       -2.6255035349        0.9582420229
 H         -3.2895260119       -4.4235999130        1.2711821323
 H         -5.6897149908       -4.0246402538        0.8780716901
 H         -6.4681215168       -1.8097282218        0.1311644876
 H         -5.9836527446        0.4873402925       -0.5109933671
 H         -5.5202303919        2.7827910762       -1.1658490752
 H         -3.9208730740        4.6309873053       -1.4787766613
 H         -1.5319703069        4.2971951028       -0.9721325151
 H         -0.7168528481        2.1292136883       -0.1819524700
 H         -0.1636152791       -0.0930285297       -1.5592233791
  44
        -70.31954222
 C          6.2652880251        1.3296584897       -0.6520590494
 C          5.8504248853        0.9201469951       -1.9098010985
 C          4.7253256314        0.1285003842       -2.0426686156
 C          4.0188871704       -0.2757753577       -0.9176707656
 C          4.4339047722        0.1350228686        0.3418922616
 C          5.5529289751        0.9472076213        0.4689032308
 S          3.5965882750       -0.3674357718        1.8232848150
 C          1.9071835332       -0.2437906763        1.2970497049
 C          0.9772031339        0.2665476395        2.1932405121
 C         -0.3556153132        0.3503839275        1.8431135016
 C         -0.7807941806       -0.0638163418        0.5832158843
 C         -2.2044724999        0.0321274893        0.1965186621
 C         -2.9808370303       -1.1315711426        0.1059769290
 C         -2.4548829001       -2.4178916715        0.3953081407
 C         -3.2328566850       -3.5311866857        0.3026715817
 C         -4.5867857359       -3.4314289321       -0.0803788106
 C         -5.1321728090       -2.2156754634       -0.3547486969
 C         -4.3569582963       -1.0306179351       -0.2694417430
 C         -4.9030713780        0.2205175405       -0.5379080501
 C         -4.1394298139        1.3802300596       -0.4519493917
 C         -4.6898203242        2.6574845794       -0.7319505924
 C         -3.9267896755        3.7812917010       -0.6585048718
 C         -2.5646607588        3.6913782363       -0.3037075523
 C         -1.9997294778        2.4848729756       -0.0238931564
 C         -2.7621894476        1.2887799642       -0.0786614329
 C          0.1543669834       -0.5603024438       -0.3149746867
 C          1.4916887072       -0.6570564057        0.0385060078
 S          2.6175721045       -1.3393380762       -1.1512996938
 H          7.1413438176        1.9501098894       -0.5427527792
 H          6.4004680165        1.2189484600       -2.7886764395
 H          4.3880862086       -0.1990792201       -3.0141355928
 H          5.8604310616        1.2579922230        1.4556431640
 H          1.3127999116        0.5816207322        3.1692806975
 H         -1.0758178446        0.7377628170        2.5478279660
 H         -1.4199913940       -2.4991281911        0.6928517089
 H         -2.8182413250       -4.5040072201        0.5228159410
 H         -5.1833004713       -4.3293872569       -0.1486003144
 H         -6.1703022071       -2.1265686004       -0.6415944277
 H         -5.9445008785        0.2932075768       -0.8192744071
 H         -5.7326913785        2.7136790069       -1.0100088556
 H         -4.3525600876        4.7499235072       -0.8750384342
 H         -1.9718621748        4.5931862069       -0.2577357830
 H         -0.9547283731        2.4208550486        0.2414416376
 H         -0.1552263275       -0.8832110172       -1.2973120270
  44
        -70.31952407
 C          6.4866743270        0.9154288189       -0.7086085319
 C          6.0705382304        0.3886222275       -1.9211972473
 C          4.8615230962       -0.2750936162       -2.0061105776
 C          4.0698087012       -0.4386125566       -0.8764822348
 C          4.4862013985        0.0897508719        0.3378960920
 C          5.6914663727        0.7763997962        0.4128053763
 S          3.5672345175       -0.1114892676        1.8413458492
 C          1.8955479015        0.0021438284        1.2636986901
 C          0.9659599739        0.6101060117        2.0985187595
 C         -0.3678236183        0.6568959648        1.7463251718
 C         -0.7977386206        0.1180708338        0.5352067668
 C         -2.2267224105        0.1245514084        0.1670806378
 C         -2.9062529836       -1.0964585402        0.0230616971
 C         -2.2801198048       -2.3506097985        0.2483910685
 C         -2.9629477890       -3.5178730497        0.0908240814
 C         -4.3195559697       -3.5113012882       -0.2936271747
 C         -4.9650982043       -2.3306360872       -0.4925402484
 C         -4.2909054542       -1.0923871110       -0.3346130072
 C         -4.9494575035        0.1200261098       -0.5109878133
 C         -4.2886543389        1.3343626036       -0.3586759388
 C         -4.9616086962        2.5709427546       -0.5336354552
 C         -4.3014089992        3.7530783151       -0.4044368364
 C         -2.9228957252        3.7635170659       -0.1072686883
 C         -2.2425221109        2.5978572003        0.0723095650
 C         -2.8979561257        1.3424012492       -0.0251186830
 C          0.1424035383       -0.4533320090       -0.3138168111
 C          1.4784666553       -0.5284320636        0.0504682976
 S          2.5749086257       -1.3752419123       -1.0571292291
 H          7.4291110354        1.4354954742       -0.6345852180
 H          6.6856878214        0.4937183513       -2.8013682359
 H          4.5221392343       -0.6926165204       -2.9417169522
 H          6.0000895124        1.1794462492        1.3652206145
 H          1.3023573821        1.0201986821        3.0384374740
 H         -1.0869251115        1.1005466945        2.4181850717
 H         -1.2459046857       -2.3687690416        0.5565948159
 H         -2.4689114887       -4.4625226264        0.2643999178
 H         -4.8381868439       -4.4503390749       -0.4180752890
 H         -6.0085518247       -2.3104597113       -0.7731168994
 H         -5.9987204358        0.1183109561       -0.7719291102
 H         -6.0147200053        2.5482215536       -0.7753271184
 H         -4.8206520230        4.6907068549       -0.5371897009
 H         -2.4088756420        4.7102581185       -0.0282536494
 H         -1.1842843762        2.6155720251        0.2862758585
 H         -0.1646693861       -0.8652152112       -1.2631880626
  44
        -70.31945982
 C          6.3768115414        1.4046606020       -0.1709829109
 C          5.9514592508        1.5181356149       -1.4850742528
 C          4.7806471729        0.9034804458       -1.8864695797
 C          4.0384922930        0.1526570073       -0.9841308701
 C          4.4650945471        0.0379282702        0.3319807669
 C          5.6301097746        0.6764193692        0.7360467020
 S          3.6037490887       -0.9417070468        1.5343424218
 C          1.9146416724       -0.6201817065        1.1027833949
 C          0.9889729200       -0.5248718078        2.1339405226
 C         -0.3516716109       -0.3447588266        1.8567877544
 C         -0.7878268948       -0.2242614615        0.5401891122
 C         -2.2216637589       -0.0461026124        0.2249560311
 C         -3.0918206882       -1.1399638899        0.3330462410
 C         -2.6440045235       -2.4278019003        0.7281371611
 C         -3.5089121259       -3.4751976297        0.8157055159
 C         -4.8758732018       -3.3049115844        0.5121184097
 C         -5.3436674563       -2.0885685093        0.1221226341
 C         -4.4757216374       -0.9713865297        0.0154294010
 C         -4.9359548551        0.2751367888       -0.3966549492
 C         -4.0791669357        1.3656036004       -0.5074199373
 C         -4.5434600816        2.6387533293       -0.9269458012
 C         -3.6947508777        3.6974085313       -1.0236228340
 C         -2.3302632578        3.5447038295       -0.7002192029
 C         -1.8450840978        2.3392105753       -0.2950079565
 C         -2.6938991180        1.2063192956       -0.1908776384
 C          0.1446565196       -0.2867847521       -0.4864079910
 C          1.4872185875       -0.5015978904       -0.2128340560
 S          2.5867954566       -0.6637889527       -1.5944369605
 H          7.2876996042        1.8845712507        0.1501727658
 H          6.5280093038        2.0863492985       -2.1982831013
 H          4.4320806738        0.9835328415       -2.9052702547
 H          5.9460967030        0.5793043257        1.7628882364
 H          1.3336307785       -0.6179382540        3.1526109747
 H         -1.0677527864       -0.2944667053        2.6633479433
 H         -1.5969119060       -2.5644260455        0.9545228874
 H         -3.1538757029       -4.4501125962        1.1156809748
 H         -5.5422584505       -4.1513859948        0.5882792107
 H         -6.3876787473       -1.9483569152       -0.1192738071
 H         -5.9826076035        0.3988819992       -0.6379940923
 H         -5.5915937521        2.7460041752       -1.1673647987
 H         -4.0556550926        4.6635864520       -1.3440257688
 H         -1.6735053209        4.3990472291       -0.7734992346
 H         -0.8014000303        2.2279151136       -0.0400905107
 H         -0.1737863983       -0.1974161612       -1.5134585070
  44
        -70.31931879
 C          6.3056047470        1.3797295099       -0.4617146715
 C          5.8904470455        1.1551685231       -1.7651279047
 C          4.7522221794        0.4102588459       -2.0092206492
 C          4.0317126375       -0.1316029233       -0.9530705254
 C          4.4456049320        0.0965496284        0.3523929872
 C          5.5792877226        0.8611750149        0.5934234141
 S          3.5918503052       -0.5864984462        1.7493931589
 C          1.9066027986       -0.3800154654        1.2353088185
 C          0.9756327013        0.0064822949        2.1904276635
 C         -0.3577137754        0.1308050483        1.8543651942
 C         -0.7808761645       -0.1156815440        0.5510718709
 C         -2.2110641935        0.0081301188        0.1890759206
 C         -3.0219659152       -1.1339175652        0.1766681634
 C         -2.5167871256       -2.4219562273        0.4939115779
 C         -3.3271616819       -3.5153848072        0.4786362194
 C         -4.6931108333       -3.3915740534        0.1482419539
 C         -5.2162909706       -2.1739756812       -0.1592674631
 C         -4.4067799645       -1.0089586897       -0.1566862587
 C         -4.9249663782        0.2445350224       -0.4667085403
 C         -4.1244800416        1.3825715639       -0.4633290981
 C         -4.6437208597        2.6629642549       -0.7849773548
 C         -3.8447683566        3.7641618806       -0.7829531542
 C         -2.4767433980        3.6490110678       -0.4583522778
 C         -1.9403401666        2.4390352858       -0.1406478496
 C         -2.7391925624        1.2658554587       -0.1290013509
 C          0.1552737771       -0.4794185491       -0.4065060418
 C          1.4932239494       -0.6191619748       -0.0682294919
 S          2.6191537679       -1.1339785155       -1.3391406540
 H          7.1929375594        1.9612644821       -0.2649803038
 H          6.4514682916        1.5601972382       -2.5929307613
 H          4.4156419144        0.2244525613       -3.0177476317
 H          5.8869073587        1.0265181353        1.6145062215
 H          1.3106198743        0.1903558053        3.1995612676
 H         -1.0794961224        0.4188593867        2.6034313331
 H         -1.4714804001       -2.5181034346        0.7486208507
 H         -2.9304106468       -4.4904236627        0.7205193185
 H         -5.3161198797       -4.2737690789        0.1442132057
 H         -6.2618467155       -2.0685935448       -0.4116092907
 H         -5.9728154177        0.3361992638       -0.7170055829
 H         -5.6921864532        2.7406694628       -1.0351034446
 H         -4.2474671549        4.7350310727       -1.0313308250
 H         -1.8575998793        4.5340724912       -0.4660456582
 H         -0.8920984719        2.3517208479        0.1058529345
 H         -0.1536188393       -0.6711091515       -1.4227939679
  44
        -70.31929973
 C          6.3107850005        1.4637981297       -0.2880563211
 C          5.9004536512        1.4061729825       -1.6108223486
 C          4.7615509494        0.7006518092       -1.9505428785
 C          4.0369211043        0.0297615268       -0.9742697506
 C          4.4486763635        0.0864363336        0.3503930915
 C          5.5812588795        0.8147803790        0.6899586079
 S          3.6002283617       -0.7780748867        1.6463695934
 C          1.9112797433       -0.5296584119        1.1648842945
 C          0.9762880315       -0.3025792058        2.1663771694
 C         -0.3600736649       -0.1550068103        1.8527317885
 C         -0.7816588353       -0.2074341238        0.5268893822
 C         -2.2135670900       -0.0419198248        0.1886286006
 C         -3.0729854767       -1.1458002557        0.2564310460
 C         -2.6132682576       -2.4391098181        0.6179279019
 C         -3.4693783889       -3.4956466340        0.6765669434
 C         -4.8378496167       -3.3278124200        0.3776340635
 C         -5.3168721648       -2.1049634291        0.0227897400
 C         -4.4589383954       -0.9776425303       -0.0521355393
 C         -4.9308256723        0.2799555418       -0.4150164962
 C         -4.0830276646        1.3807487667       -0.4874912108
 C         -4.5572669902        2.6667795164       -0.8532557989
 C         -3.7151750368        3.7335485742       -0.9132303115
 C         -2.3462744430        3.5760386262       -0.6109303167
 C         -1.8514566785        2.3587818814       -0.2559685565
 C         -2.6955318614        1.2200298657       -0.1818559802
 C          0.1580700052       -0.4109045548       -0.4736744622
 C          1.4980451574       -0.5849789713       -0.1592477003
 S          2.6231808316       -0.9093228123       -1.4921772730
 H          7.1975517332        2.0150823275       -0.0160254760
 H          6.4650240091        1.9116254619       -2.3789592054
 H          4.4279856394        0.6448246580       -2.9753236361
 H          5.8860294791        0.8490927624        1.7246514590
 H          1.3109763314       -0.2605903432        3.1914734711
 H         -1.0848564723        0.0059450913        2.6362958515
 H         -1.5651973186       -2.5693241562        0.8447938899
 H         -3.1073727123       -4.4750697896        0.9526411717
 H         -5.4975895672       -4.1811904654        0.4319630478
 H         -6.3628430501       -1.9669656535       -0.2113118629
 H         -5.9798795621        0.4046977064       -0.6452143477
 H         -5.6077919337        2.7777219316       -1.0810498685
 H         -4.0844812186        4.7097115324       -1.1910516593
 H         -1.6934591269        4.4348950401       -0.6636602492
 H         -0.8034814551        2.2402538268       -0.0217195449
 H         -0.1497123199       -0.4541957160       -1.5074016466
  44
        -70.31921635
 C          6.2342223838        1.5924772822        0.2109950906
 C          5.8014581940        1.9920003827       -1.0439106789
 C          4.6917007487        1.3977032665       -1.6149852417
 C          4.0164169487        0.3880359907       -0.9423133315
 C          4.4464958724       -0.0067596358        0.3173711081
 C          5.5522496444        0.6032512643        0.8938432984
 S          3.6355410234       -1.2970179704        1.2255150898
 C          1.9421168828       -0.8988701870        0.8799471224
 C          1.0218726753       -0.9850333079        1.9161732725
 C         -0.3144250427       -0.7330133914        1.6834093341
 C         -0.7604106388       -0.3847296766        0.4084488870
 C         -2.1919610604       -0.1247712951        0.1681681563
 C         -3.1294108824       -1.1407279018        0.4209711249
 C         -2.7493977710       -2.4487607587        0.8214946029
 C         -3.6824987152       -3.4040462933        1.0874873743
 C         -5.0579876412       -3.1211533191        0.9609016796
 C         -5.4638385357       -1.8928406540        0.5407767738
 C         -4.5230780373       -0.8724105582        0.2469345939
 C         -4.9274587846        0.3775024362       -0.2096640051
 C         -4.0063577611        1.3806579891       -0.4916817198
 C         -4.4218732651        2.6505966354       -0.9685022990
 C         -3.5190504073        3.6374606596       -1.2148672513
 C         -2.1476641540        3.4134379266       -0.9759110467
 C         -1.7094753469        2.2075798116       -0.5199853616
 C         -2.6120317607        1.1371494854       -0.2847040363
 C          0.1688524054       -0.2794270113       -0.6196590253
 C          1.5123674203       -0.5328770035       -0.3883382589
 S          2.6373938796       -0.3828071670       -1.7533449036
 H          7.1000580687        2.0528289428        0.6611745099
 H          6.3259432990        2.7689606522       -1.5782635682
 H          4.3429115746        1.6965792999       -2.5915524544
 H          5.8734857416        0.2795022474        1.8719365889
 H          1.3686022169       -1.2622311967        2.8997218563
 H         -1.0227786719       -0.7955685071        2.4955141057
 H         -1.6990144009       -2.6830566648        0.9062058270
 H         -3.3740210330       -4.3924324477        1.3950532682
 H         -5.7795452920       -3.8914904599        1.1892557473
 H         -6.5138499301       -1.6678430110        0.4196129563
 H         -5.9815593318        0.5736662867       -0.3490110752
 H         -5.4781855319        2.8137344157       -1.1280750994
 H         -3.8418759049        4.6005569021       -1.5815899794
 H         -1.4443459705        4.2131732590       -1.1563662748
 H         -0.6587017991        2.0555102552       -0.3257490322
 H         -0.1506865463       -0.0206269941       -1.6176783142
