  44
  -70.0750112277000       0.268709660064742      !
 C          6.2933607038        1.2507144063       -0.5256722048
 C          5.8697198646        0.9814532794       -1.8178614463
 C          4.7273513994        0.2326304645       -2.0287290500
 C          4.0119291240       -0.2690464919       -0.9495601399
 C          4.4357526412        0.0013043477        0.3445719484
 C          5.5725043045        0.7712863375        0.5517298998
 S          3.5872467306       -0.6316291503        1.7684822004
 C          1.9010890539       -0.4174395870        1.2612396523
 C          0.9825149329        0.0188377112        2.2069406653
 C         -0.3480568417        0.1675210375        1.8700512464
 C         -0.7821145649       -0.1059543585        0.5752593562
 C         -2.2032490936        0.0605230512        0.2034235848
 C         -3.0052323348       -1.0703433671       -0.0041775230
 C         -2.5080017297       -2.3908382693        0.1507925996
 C         -3.3104749214       -3.4713284242       -0.0537271613
 C         -4.6617933243       -3.3029725549       -0.4216917824
 C         -5.1800205909       -2.0537594024       -0.5689649662
 C         -4.3787122199       -0.9010900661       -0.3643813451
 C         -4.8968810924        0.3827216448       -0.5021570507
 C         -4.1077053860        1.5103744189       -0.2994962952
 C         -4.6295690897        2.8214374033       -0.4460623902
 C         -3.8417988941        3.9146776429       -0.2595244881
 C         -2.4820595063        3.7588246798        0.0813265147
 C         -1.9440885089        2.5178193644        0.2349214548
 C         -2.7328954299        1.3507654396        0.0595588609
 C          0.1419467850       -0.5283653204       -0.3710232416
 C          1.4767335025       -0.6903382128       -0.0321301545
 S          2.5873951572       -1.2718652302       -1.2879232610
 H          7.1829517630        1.8371997888       -0.3552486289
 H          6.4264039246        1.3564813852       -2.6626740906
 H          4.3830860472        0.0138121051       -3.0279221275
 H          5.8866644020        0.9724947087        1.5644583541
 H          1.3248597426        0.2247862648        3.2094055869
 H         -1.0596018151        0.4964942893        2.6122486037
 H         -1.4752171283       -2.5249681211        0.4362696150
 H         -2.9175870033       -4.4705026507        0.0647598703
 H         -5.2780774264       -4.1758211656       -0.5802552222
 H         -6.2158693971       -1.9128267830       -0.8429875948
 H         -5.9363944181        0.5068394686       -0.7724033906
 H         -5.6708902332        2.9288434280       -0.7147042878
 H         -4.2459326707        4.9095627872       -0.3748251545
 H         -1.8694015285        4.6378628847        0.2181593221
 H         -0.9008093547        2.4038891185        0.4901011215
 H         -0.1745738063       -0.7420356771       -1.3806094484
  44
  -70.0744766444000       0.152618016535290      !
 C          6.4056808033        1.2774413822       -0.0378015605
 C          5.9847860860        1.5269971316       -1.3344151380
 C          4.8016669756        0.9794620413       -1.7928413617
 C          4.0422758342        0.1607243878       -0.9671667300
 C          4.4643904063       -0.0903017462        0.3313351666
 C          5.6422206556        0.4808165396        0.7947361283
 S          3.5804945608       -1.1632734436        1.4334852350
 C          1.8992971389       -0.7652121753        1.0362094401
 C          0.9743697830       -0.7505667601        2.0723206966
 C         -0.3617008179       -0.5156792886        1.8147836579
 C         -0.7932419370       -0.2586608038        0.5163627738
 C         -2.2224693515       -0.0200225809        0.2207931205
 C         -3.1160151966       -1.1002822878        0.2227573092
 C         -2.6964680723       -2.4296936204        0.4907286000
 C         -3.5837403717       -3.4618391148        0.4767737964
 C         -4.9462931462       -3.2336000608        0.1919898044
 C         -5.3873526773       -1.9753953747       -0.0778362579
 C         -4.4955199469       -0.8720185178       -0.0761455443
 C         -4.9283412919        0.4181981113       -0.3650317559
 C         -4.0482301594        1.4956266265       -0.3699792509
 C         -4.4845292280        2.8131470765       -0.6636853872
 C         -3.6131970418        3.8577278143       -0.6576935835
 C         -2.2527696424        3.6451132417       -0.3514788975
 C         -1.7941191404        2.3958551122       -0.0654670089
 C         -2.6671582183        1.2766848400       -0.0712448684
 C          0.1391941160       -0.2412706603       -0.5120324237
 C          1.4764437769       -0.5103803842       -0.2614259804
 S          2.5743209372       -0.5613024796       -1.6529267883
 H          7.3261673243        1.7042635124        0.3278481302
 H          6.5744214093        2.1492308516       -1.9894716231
 H          4.4563909923        1.1654589549       -2.7988490402
 H          5.9545472886        0.2777604080        1.8071110040
 H          1.3154594528       -0.9494167759        3.0769382364
 H         -1.0777235372       -0.5285329690        2.6228598511
 H         -1.6528756544       -2.6100812270        0.7021400008
 H         -3.2501090810       -4.4686557354        0.6805034797
 H         -5.6307683141       -4.0689725770        0.1860569805
 H         -6.4277656017       -1.7900476345       -0.3038412812
 H         -5.9717478640        0.5872121150       -0.5925760963
 H         -5.5297710458        2.9656908674       -0.8919137024
 H         -3.9528519381        4.8579587683       -0.8825985800
 H         -1.5777552393        4.4882428721       -0.3419093080
 H         -0.7534338180        2.2379753576        0.1768015602
 H         -0.1757535650       -0.0458496442       -1.5253655299
  44
  -70.0742798750000       0.123930114209942      !
 C          6.3412736295        1.3482008251       -0.1493051287
 C          5.9311470944        1.4302199786       -1.4708464716
 C          4.7775933566        0.7864529647       -1.8772297077
 C          4.0376161153        0.0383728095       -0.9710833799
 C          4.4491437186       -0.0448097261        0.3522502024
 C          5.5968727649        0.6218155188        0.7607373663
 S          3.5808601109       -1.0143767432        1.5575809169
 C          1.8981765654       -0.6831994386        1.1048293821
 C          0.9672916784       -0.5358367995        2.1248784129
 C         -0.3652417842       -0.3291710643        1.8288083784
 C         -0.7865038740       -0.2414337388        0.5047308962
 C         -2.2141480144       -0.0124227859        0.1860417354
 C         -3.0973205037       -1.0987556834        0.1455901528
 C         -2.6660668512       -2.4310565383        0.3772455907
 C         -3.5448980276       -3.4694555514        0.3323413538
 C         -4.9091101276       -3.2433880954        0.0529463951
 C         -5.3611960557       -1.9814261722       -0.1790173262
 C         -4.4789933203       -0.8710379382       -0.1433401286
 C         -4.9231854990        0.4261337801       -0.3798817602
 C         -4.0516926766        1.5101075028       -0.3443712123
 C         -4.4976181571        2.8359018761       -0.5809753258
 C         -3.6325790904        3.8849158231       -0.5363751590
 C         -2.2677177740        3.6687784510       -0.2526116490
 C         -1.7997194486        2.4120268907       -0.0199970810
 C         -2.6683133689        1.2900463164       -0.0576259794
 C          0.1496269362       -0.3655024013       -0.5120702593
 C          1.4851987425       -0.5986899350       -0.2178407160
 S          2.6044179373       -0.8142419492       -1.5775157439
 H          7.2394824730        1.8506506360        0.1747864428
 H          6.5073093071        1.9966409468       -2.1860111520
 H          4.4439484054        0.8392080284       -2.9021472838
 H          5.9012540588        0.5473009171        1.7934286833
 H          1.3017595930       -0.6024148344        3.1487437994
 H         -1.0871746774       -0.2306497052        2.6252345915
 H         -1.6212919690       -2.6056564640        0.5889929755
 H         -3.2044534288       -4.4789348127        0.5100599607
 H         -5.5872167397       -4.0834899606        0.0235728053
 H         -6.4036955409       -1.7984143340       -0.3971996582
 H         -5.9690580967        0.5956394116       -0.5954834123
 H         -5.5452625322        2.9914730223       -0.7955444207
 H         -3.9803912367        4.8914818205       -0.7161457959
 H         -1.5964172662        4.5143227646       -0.2210987258
 H         -0.7547949515        2.2483273498        0.2002501067
 H         -0.1579606531       -0.2999507752       -1.5446828852
  44
  -70.0742785592000       0.123757677368508      !
 C          6.3346216572        1.2809126349       -0.3306304059
 C          5.9154452926        1.1977401971       -1.6493582517
 C          4.7613138084        0.5062401755       -1.9653262535
 C          4.0284460094       -0.1232232222       -0.9678885958
 C          4.4464347457       -0.0366568644        0.3532423905
 C          5.5964593767        0.6748615234        0.6681538860
 S          3.5770481785       -0.8379289016        1.6758123258
 C          1.8970502617       -0.5439657714        1.1877859263
 C          0.9741878820       -0.2352351066        2.1784161568
 C         -0.3559048006       -0.0486010921        1.8586847732
 C         -0.7835646894       -0.1534196122        0.5378836407
 C         -2.2104708248        0.0374331102        0.1924530207
 C         -3.0462076226       -1.0795608850        0.0665288893
 C         -2.5695846374       -2.4037193846        0.2518054024
 C         -3.4037267206       -3.4720756517        0.1279175943
 C         -4.7664289597       -3.2858079312       -0.1861739553
 C         -5.2625992762       -2.0323008854       -0.3688222423
 C         -4.4277432234       -0.8914407119       -0.2503623013
 C         -4.9181325112        0.3979145093       -0.4319082198
 C         -4.0928909583        1.5120546882       -0.3153534828
 C         -4.5837374974        2.8293585340       -0.5057591664
 C         -3.7608362139        3.9070253953       -0.3942556957
 C         -2.3958652334        3.7299089738       -0.0850604151
 C         -1.8863141827        2.4826692264        0.1084768239
 C         -2.7107019313        1.3320252274        0.0033344185
 C          0.1449768043       -0.4393763873       -0.4529120992
 C          1.4793326317       -0.6416725710       -0.1325362372
 S          2.5944895812       -1.0505384540       -1.4505737467
 H          7.2343689133        1.8201579837       -0.0778139030
 H          6.4857223173        1.6716161177       -2.4331161193
 H          4.4213635744        0.4302342348       -2.9868906715
 H          5.9069995706        0.7298834889        1.7001982934
 H          1.3125026593       -0.1611778454        3.2003922516
 H         -1.0716607760        0.1783607322        2.6340729680
 H         -1.5267944881       -2.5478432694        0.4938885696
 H         -3.0285968039       -4.4749447438        0.2698708150
 H         -5.4086265463       -4.1492827439       -0.2779240147
 H         -6.3054373837       -1.8792238362       -0.6076207073
 H         -5.9635653696        0.5371910181       -0.6700483990
 H         -5.6300928992        2.9547464614       -0.7451323095
 H         -4.1419998677        4.9065303889       -0.5430804736
 H         -1.7574621663        4.5974986751       -0.0046785638
 H         -0.8403910566        2.3480926990        0.3432768893
 H         -0.1674166553       -0.5210603405       -1.4828340100
  44
  -70.0741989269000       0.113756357888016      !
 C          6.4167565304        1.0218184120       -0.5970663938
 C          5.9915229387        0.6729636948       -1.8694597218
 C          4.8032299026       -0.0125348046       -2.0363722442
 C          4.0419836408       -0.3735601533       -0.9323027655
 C          4.4665059738       -0.0217398245        0.3418078480
 C          5.6507712390        0.6857350071        0.5029343909
 S          3.5719110043       -0.4752756036        1.8048437023
 C          1.8968146430       -0.2677643175        1.2623511274
 C          0.9784442299        0.2407859591        2.1719881144
 C         -0.3521738570        0.3651059390        1.8266631507
 C         -0.7889053559        0.0004043207        0.5547427094
 C         -2.2140247158        0.1140018252        0.1853143537
 C         -2.9616603246       -1.0483172590       -0.0599584042
 C         -2.4057237901       -2.3496890514        0.0522802785
 C         -3.1565458897       -3.4590775769       -0.1907043327
 C         -4.5138502563       -3.3429494389       -0.5553890704
 C         -5.0900093846       -2.1149252205       -0.6567139376
 C         -4.3436531817       -0.9340471399       -0.4095268797
 C         -4.9277902960        0.3257336559       -0.4916782962
 C         -4.1959232716        1.4830942625       -0.2471382941
 C         -4.7897160067        2.7687441333       -0.3309153006
 C         -4.0600192091        3.8943521805       -0.1055271843
 C         -2.6880195194        3.7971994909        0.2061376876
 C         -2.0820576746        2.5815926342        0.2987501324
 C         -2.8105660231        1.3807946369        0.0923304653
 C          0.1383602611       -0.4811355654       -0.3606645877
 C          1.4721985825       -0.6262274737       -0.0099042511
 S          2.5685969493       -1.3186404680       -1.2207041343
 H          7.3435741692        1.5569775527       -0.4597797553
 H          6.5836059808        0.9346293075       -2.7326577323
 H          4.4572239615       -0.2930632208       -3.0193500884
 H          5.9665055738        0.9489582689        1.5008173670
 H          1.3204894949        0.5166628085        3.1576477486
 H         -1.0635468759        0.7389165353        2.5474796679
 H         -1.3704452765       -2.4494880925        0.3415383413
 H         -2.7173518543       -4.4418288043       -0.1017462275
 H         -5.0883461028       -4.2375939774       -0.7448439776
 H         -6.1317885576       -2.0127432433       -0.9252307987
 H         -5.9743134766        0.4070118452       -0.7509510982
 H         -5.8391525389        2.8299999210       -0.5815236997
 H         -4.5191516609        4.8697713244       -0.1700234308
 H         -2.1194907477        4.7014019328        0.3668893403
 H         -1.0284064476        2.5161282876        0.5260583147
 H         -0.1759744074       -0.7609245176       -1.3547375035
  44
  -70.0741015365000       0.102616724974533      !
 C          6.3435888266        1.3704233101        0.1510773328
 C          5.9215434037        1.7620151716       -1.1098738000
 C          4.7655666554        1.2286920233       -1.6479652634
 C          4.0342917575        0.2849607598       -0.9386603992
 C          4.4556492590       -0.1049332494        0.3254175709
 C          5.6066726468        0.4486396731        0.8702958171
 S          3.5931992120       -1.3270277633        1.2791332860
 C          1.9094936747       -0.8980275605        0.9252851504
 C          0.9840924810       -0.9831651724        1.9575798203
 C         -0.3500756090       -0.7182860827        1.7231247314
 C         -0.7829996802       -0.3400797216        0.4537177882
 C         -2.2098800046       -0.0621567273        0.1947969691
 C         -3.1430692846       -1.1072734561        0.2760978801
 C         -2.7633259795       -2.4456176694        0.5587712545
 C         -3.6909905722       -3.4392066311        0.6338937436
 C         -5.0583117473       -3.1628039154        0.4267774049
 C         -5.4619213033       -1.8973015729        0.1335026971
 C         -4.5268525808       -0.8345329280        0.0405182695
 C         -4.9243175312        0.4592196300       -0.2807509192
 C         -4.0053229083        1.4991986033       -0.3755632697
 C         -4.4090884203        2.8181733177       -0.7072003714
 C         -3.5041623449        3.8310101256       -0.7808161732
 C         -2.1417263178        3.5828932104       -0.5141222995
 C         -1.7142143474        2.3306253525       -0.1942258186
 C         -2.6208919301        1.2402456167       -0.1276916579
 C          0.1505916941       -0.2293987689       -0.5687520597
 C          1.4879921983       -0.5168612153       -0.3413424728
 S          2.6001159843       -0.4093678854       -1.7198421056
 H          7.2450779081        1.7834988265        0.5763445533
 H          6.4908394178        2.4832979427       -1.6754385895
 H          4.4230350221        1.5214732030       -2.6285749676
 H          5.9205493057        0.1319909597        1.8531756704
 H          1.3243325707       -1.2759702219        2.9389577190
 H         -1.0645564235       -0.7956865525        2.5286551928
 H         -1.7171638260       -2.6681797597        0.7064135600
 H         -3.3851796794       -4.4526191107        0.8484475113
 H         -5.7755853798       -3.9672806213        0.4948673904
 H         -6.5053309600       -1.6757107256       -0.0397363879
 H         -5.9709483675        0.6608260879       -0.4623844982
 H         -5.4576169827        2.9973989811       -0.8978251712
 H         -3.8187720427        4.8323470613       -1.0351190575
 H         -1.4384878784        4.4014043302       -0.5623637130
 H         -0.6711277164        2.1516815233        0.0197445783
 H         -0.1625110445        0.0579413560       -1.5610364418
  44
  -70.0737952352000       7.420818657593735E-002 !
 C          6.5055435352        0.8396595156       -0.6244637766
 C          6.0781102265        0.4489982549       -1.8837295843
 C          4.8546944187       -0.1756865266       -2.0336271310
 C          4.0592857568       -0.4363991033       -0.9250404935
 C          4.4870097090       -0.0443783220        0.3361642636
 C          5.7071871441        0.6042199204        0.4784637745
 S          3.5634563734       -0.3780413334        1.8130112854
 C          1.8948351154       -0.1690175341        1.2534248206
 C          0.9787628863        0.3707204429        2.1479475241
 C         -0.3535731602        0.4827399742        1.8051056108
 C         -0.7950488370        0.0802800276        0.5461010674
 C         -2.2234518128        0.1559439157        0.1834808375
 C         -2.9298573896       -1.0286188616       -0.0832976048
 C         -2.3317411828       -2.3127616825        0.0112840029
 C         -3.0402483843       -3.4424140380       -0.2634668117
 C         -4.3962877270       -3.3665874213       -0.6424646184
 C         -5.0154439039       -2.1578011262       -0.7182460525
 C         -4.3139958033       -0.9573991277       -0.4358580058
 C         -4.9454598366        0.2809421509       -0.4859453711
 C         -4.2579269758        1.4584332049       -0.2115620030
 C         -4.9032542082        2.7209819040       -0.2577400794
 C         -4.2170333350        3.8688269887       -0.0096413467
 C         -2.8386967627        3.8183638529        0.2842268002
 C         -2.1843805306        2.6257095033        0.3422388438
 C         -2.8674701536        1.4015910309        0.1182339580
 C          0.1323890301       -0.4218792917       -0.3588323800
 C          1.4663734555       -0.5633408691       -0.0068629409
 S          2.5440257980       -1.3163906532       -1.1975037964
 H          7.4592636182        1.3284849699       -0.4995501878
 H          6.6956439202        0.6299853616       -2.7497844256
 H          4.5063533341       -0.4876978737       -3.0063416202
 H          6.0244501459        0.9007938479        1.4664807606
 H          1.3239524838        0.6749671120        3.1241977536
 H         -1.0628163538        0.8710938082        2.5202867379
 H         -1.2982548197       -2.3851919319        0.3139059072
 H         -2.5673213886       -4.4105431951       -0.1884384733
 H         -4.9355850556       -4.2762822048       -0.8612592112
 H         -6.0581281982       -2.0859874028       -0.9931606809
 H         -5.9944420251        0.3291039386       -0.7435551803
 H         -5.9565541129        2.7463685365       -0.4983421827
 H         -4.7153260486        4.8263536113       -0.0447277832
 H         -2.3038276965        4.7404697593        0.4586241121
 H         -1.1260600222        2.5980674310        0.5547385149
 H         -0.1835207993       -0.7275870990       -1.3447284408
  44
  -70.0732207059000       4.040326238303206E-002 !
 C          6.2658497436        1.4340314208        0.3587651432
 C          5.8447939268        1.9550718505       -0.8548743881
 C          4.7242102802        1.4388361694       -1.4783082809
 C          4.0260858276        0.3867603522       -0.9006557550
 C          4.4445444937       -0.1299506607        0.3181709056
 C          5.5614428948        0.4015244891        0.9484065883
 S          3.6042664172       -1.4799184764        1.1047200009
 C          1.9204950238       -1.0161551239        0.7957513215
 C          0.9960086982       -1.1766093416        1.8192832442
 C         -0.3340837703       -0.8761696688        1.6095817691
 C         -0.7693871601       -0.4040412095        0.3713029167
 C         -2.1945244170       -0.0929928321        0.1547792345
 C         -3.1538213895       -1.1075982879        0.3135697380
 C         -2.8024846933       -2.4543942327        0.5937164587
 C         -3.7561883590       -3.4098848596        0.7711621101
 C         -5.1250822282       -3.0875272950        0.6699823989
 C         -5.5038815484       -1.8177732020        0.3630499852
 C         -4.5410760565       -0.7950533876        0.1637991675
 C         -4.9178575450        0.4994911522       -0.1774906028
 C         -3.9751012867        1.5043541941       -0.3665489395
 C         -4.3625414988        2.8209115376       -0.7261626317
 C         -3.4384933076        3.8067011025       -0.8812086851
 C         -2.0727457778        3.5328287535       -0.6627730438
 C         -1.6612334775        2.2814903707       -0.3181263654
 C         -2.5867486707        1.2135013065       -0.1817172334
 C          0.1644987946       -0.2254604208       -0.6423983517
 C          1.5017804548       -0.5273459092       -0.4342596869
 S          2.6331855051       -0.2777224411       -1.7792724625
 H          7.1400503093        1.8330733588        0.8494743206
 H          6.3868967880        2.7660833847       -1.3160356130
 H          4.3842816201        1.8325844272       -2.4238637302
 H          5.8732964964       -0.0165420987        1.8932029687
 H          1.3343174176       -1.5493650434        2.7737612474
 H         -1.0456600933       -0.9972422728        2.4121979462
 H         -1.7574922677       -2.7176604786        0.6574149785
 H         -3.4693966859       -4.4284613406        0.9877606746
 H         -5.8632959854       -3.8599452567        0.8268940788
 H         -6.5486054527       -1.5604587908        0.2622045788
 H         -5.9672312801        0.7298374102       -0.2990685253
 H         -5.4147712363        3.0202614965       -0.8708871711
 H         -3.7400123348        4.8057802618       -1.1590275891
 H         -1.3522693927        4.3305493992       -0.7693221336
 H         -0.6143959832        2.0901267694       -0.1378788048
 H         -0.1469765127        0.1297161264       -1.6129434794
