  44
        -70.31967484
 C          6.3938608436        1.0974496382       -0.6996522854
 C          5.9791220061        0.6107746524       -1.9295494995
 C          4.8066178270       -0.1144140390       -2.0251718516
 C          4.0512068422       -0.3772793806       -0.8898037864
 C          4.4651654578        0.1125049711        0.3414980303
 C          5.6331695510        0.8588670933        0.4291144640
 S          3.5777254435       -0.2085595785        1.8434422868
 C          1.8996011610       -0.0949204256        1.2828247855
 C          0.9683037896        0.4836042512        2.1357382933
 C         -0.3640049286        0.5423464171        1.7797156554
 C         -0.7898897442        0.0397050349        0.5519139425
 C         -2.2163887512        0.0832181810        0.1730286274
 C         -2.9376447367       -1.1144117767        0.0482261008
 C         -2.3533315038       -2.3847877292        0.2930821392
 C         -3.0789473777       -3.5296149080        0.1651345679
 C         -4.4377140036       -3.4815943171       -0.2093025099
 C         -5.0406474468       -2.2834932625       -0.4357857918
 C         -4.3210845995       -1.0672388306       -0.3109798227
 C         -4.9327360695        0.1642304536       -0.5216420130
 C         -4.2271336955        1.3565042527       -0.3970578824
 C         -4.8490064877        2.6133194460       -0.6119852877
 C         -4.1448319345        3.7720060098       -0.5031995304
 C         -2.7716810161        3.7377528370       -0.1834495320
 C         -2.1392081531        2.5517699426        0.0330903118
 C         -2.8405734289        1.3202762663       -0.0491252480
 C          0.1497160864       -0.5123514736       -0.3095076735
 C          1.4856916843       -0.5911231230        0.0540488867
 S          2.5996701576       -1.3793891677       -1.0796398246
 H          7.3083378357        1.6642899848       -0.6180574631
 H          6.5670986070        0.7957404606       -2.8151076250
 H          4.4689673686       -0.5017420257       -2.9741876283
 H          5.9409067395        1.2298398160        1.3947345505
 H          1.3020916561        0.8664930212        3.0878988700
 H         -1.0849810232        0.9721300501        2.4585690161
 H         -1.3167131190       -2.4314398778        0.5908699457
 H         -2.6183378608       -4.4880992396        0.3542154483
 H         -4.9919041142       -4.4034647615       -0.3060273504
 H         -6.0838612702       -2.2324914832       -0.7131845006
 H         -5.9802504118        0.1952849148       -0.7877033225
 H         -5.8990093934        2.6252843875       -0.8673763887
 H         -4.6252645560        4.7252612504       -0.6671928927
 H         -2.2236071418        4.6660566868       -0.1162550025
 H         -1.0848494820        2.5333270025        0.2657341368
 H         -0.1562638405       -0.8993774458       -1.2696411458
