  44
        -64.76657630
 C         -5.6794383612        0.0080657606       -0.0165227194
 C         -4.9742050053        0.6931670467       -0.9936382140
 C         -3.5935546879        0.6952837952       -0.9843887330
 C         -2.8836094878       -0.0010574166       -0.0010664446
 C         -1.4234775452       -0.0034736153        0.0054952020
 C         -0.7131456244       -1.2421981937       -0.0236277209
 C         -1.3746670111       -2.4682073834       -0.1324083182
 C         -0.6819423954       -3.6772774111       -0.0757743543
 C          0.6844519365       -3.6764683151        0.0948905072
 C          1.3761957432       -2.4666012236        0.1459898944
 C          0.7134445855       -1.2416146324        0.0337597929
 C          1.4233793598       -0.0026826305        0.0008428988
 C          2.8835753397       -0.0010210913       -0.0023436797
 C          3.6017922942        0.6934545347        0.9761033487
 C          4.9825065561        0.6913338482        0.9734885305
 C          5.6793490339        0.0081576365       -0.0108902543
 C          4.9808996304       -0.6803676744       -0.9903843635
 C          3.6001664196       -0.6917300084       -0.9845786981
 C          0.7128644454        1.2359138411       -0.0270216322
 C          1.3738060441        2.4617658812       -0.1407440315
 C          0.6815276106        3.6708857561       -0.0802528576
 C         -0.6836004433        3.6701178052        0.0998311982
 C         -1.3751171637        2.4602796398        0.1549357410
 C         -0.7132439804        1.2353576486        0.0373061474
 C         -3.6086086021       -0.6922575670        0.9746117077
 C         -4.9893748819       -0.6810173386        0.9684606377
 H         -6.7592313016        0.0116192696       -0.0224288543
 H         -5.5052649985        1.2257203674       -1.7692877162
 H         -3.0467424168        1.2120772830       -1.7600240099
 H         -2.4451690825       -2.4839980342       -0.2681579282
 H         -1.2264265889       -4.6065217815       -0.1535191131
 H          1.2296443948       -4.6049929697        0.1760716967
 H          2.4468801798       -2.4807447692        0.2809742426
 H          3.0617323703        1.2093910375        1.7570578693
 H          5.5202265233        1.2234314187        1.7449627945
 H          6.7591587143        0.0121329863       -0.0145228800
 H          5.5174599038       -1.2089728241       -1.7651408309
 H          3.0588612050       -1.2110977039       -1.7623815100
 H          2.4433488108        2.4772996774       -0.2836371291
 H          1.2254798607        4.6000844580       -0.1623999946
 H         -1.2281496411        4.5986109795        0.1854025095
 H         -2.4448092901        2.4744832183        0.2974062566
 H         -3.0741426042       -1.2117029289        1.7570104727
 H         -5.5325439519       -1.2107078152        1.7379050494
  44
        -64.76631615
 C         -5.6786895576        0.0033993874        0.0253416946
 C         -4.9918163095       -0.5295848202       -1.0541445251
 C         -3.6108712411       -0.5382508402       -1.0661594039
 C         -2.8840938335       -0.0004636735       -0.0001010593
 C         -1.4227801835       -0.0014089978       -0.0102593840
 C         -0.7132759457       -1.2366972611       -0.1150448398
 C         -1.3809462984       -2.4642806378       -0.1352058334
 C         -0.6873994273       -3.6726131695       -0.1940161127
 C          0.6890998816       -3.6724418208       -0.1878961253
 C          1.3820481257       -2.4639169121       -0.1242583193
 C          0.7142973362       -1.2364225422       -0.1110520837
 C          1.4233475357       -0.0005283571       -0.0060364149
 C          2.8842727464       -0.0000750759        0.0032793272
 C          3.5926989871        0.5484925764        1.0765225920
 C          4.9734930367        0.5417834137        1.0881300694
 C          5.6792528667       -0.0001590770        0.0253391647
 C          4.9902511073       -0.5415996261       -1.0486202853
 C          3.6093833504       -0.5480951975       -1.0589658840
 C          0.7134032038        1.2353644760        0.0919980923
 C          1.3804042584        2.4632859859        0.1059783682
 C          0.6861713262        3.6713574180        0.1632146601
 C         -0.6903592314        3.6705391513        0.1620087718
 C         -1.3827819522        2.4615776768        0.1035279984
 C         -0.7138994921        1.2346416535        0.0903554375
 C         -3.5901072407        0.5399922542        1.0786433935
 C         -4.9709554265        0.5355858973        1.0918545102
 H         -6.7584995196        0.0049441747        0.0350780748
 H         -5.5374204641       -0.9387840999       -1.8922694323
 H         -3.0782839212       -0.9369588709       -1.9176624801
 H         -2.4587663533       -2.4831825126       -0.0878840362
 H         -1.2380394121       -4.6009413939       -0.2268385481
 H          1.2402187423       -4.6006661355       -0.2150450140
 H          2.4594429739       -2.4830579113       -0.0676146325
 H          3.0451204304        0.9529605131        1.9158351590
 H          5.5041623510        0.9589372683        1.9318924354
 H          6.7590435727       -0.0003538299        0.0339551414
 H          5.5341561610       -0.9587524167       -1.8839289402
 H          3.0752251415       -0.9516853493       -1.9072664750
 H          2.4581043262        2.4829564674        0.0557195990
 H          1.2364566363        4.6000365172        0.1913560192
 H         -1.2417983815        4.5984812171        0.1894453105
 H         -2.4604644360        2.4791888564        0.0514226781
 H         -3.0404438783        0.9375780063        1.9198668127
 H         -5.4999730579        0.9454734586        1.9402656855
  44
        -64.76582598
 C         -5.6437435772       -0.0284992665        0.4034037515
 C         -5.0914202602        0.6459152448       -0.6737777941
 C         -3.7224568468        0.6643156022       -0.8599303112
 C         -2.8736432140       -0.0027982823        0.0274221398
 C         -1.4213797178        0.0129544363       -0.1253130249
 C         -0.7171224125       -1.2285376995       -0.2049363883
 C         -1.3963985552       -2.4396659518       -0.3541458841
 C         -0.7186308031       -3.6585257193       -0.3580575644
 C          0.6485105397       -3.6803783314       -0.1943433541
 C          1.3553145432       -2.4834145158       -0.0842327096
 C          0.7088681375       -1.2457929720       -0.1456250410
 C          1.4226588969       -0.0100793867       -0.1118673474
 C          2.8734009098        0.0042290980        0.0539808949
 C          3.7290768310       -0.6647663632       -0.8254846797
 C          5.0961236017       -0.6514349844       -0.6253539026
 C          5.6396742685        0.0199225671        0.4581904469
 C          4.8034220770        0.6943278046        1.3346631469
 C          3.4384011763        0.6944067422        1.1318758183
 C          0.7191101734        1.2315634111       -0.1955222220
 C          1.3996122389        2.4430609513       -0.3356411368
 C          0.7216507482        3.6618266520       -0.3440121195
 C         -0.6470918897        3.6832476447       -0.1941969153
 C         -1.3548017056        2.4859795314       -0.0934493815
 C         -0.7074176247        1.2486472397       -0.1501406973
 C         -3.4471451290       -0.6953451887        1.0992868788
 C         -4.8141557710       -0.7002452014        1.2882104280
 H         -6.7133659386       -0.0335427697        0.5515492042
 H         -5.7337278379        1.1594224655       -1.3747661992
 H         -3.2996282897        1.1680043658       -1.7173881786
 H         -2.4692866344       -2.4342049257       -0.4731575802
 H         -1.2745347947       -4.5769457850       -0.4735509821
 H          1.1828076178       -4.6181139014       -0.1578937018
 H          2.4241440431       -2.5192471042        0.0583432943
 H          3.3132159240       -1.1665910876       -1.6874099958
 H          5.7437865577       -1.1656086448       -1.3208291980
 H          6.7077682596        0.0214646522        0.6170441219
 H          5.2190440256        1.2194480895        2.1825879661
 H          2.7863745870        1.2059769812        1.8254607691
 H          2.4736606060        2.4380047940       -0.4437468942
 H          1.2785376488        4.5805803959       -0.4519612597
 H         -1.1818411057        4.6208692952       -0.1617592568
 H         -2.4251441057        2.5211640584        0.0375706480
 H         -2.8004042469       -1.2059897127        1.7985162530
 H         -5.2363709878       -1.2255713221        2.1327277956
  44
        -64.76571016
 C         -5.6376768853        0.0380482509       -0.4596291952
 C         -4.7940059999        0.7275599429       -1.3172264113
 C         -3.4299606208        0.7113801987       -1.1115417964
 C         -2.8716946209       -0.0087886681       -0.0488278012
 C         -1.4227380674       -0.0252455379        0.1237394131
 C         -0.7030312423       -1.2574956381        0.1562999210
 C         -1.3418765711       -2.4991516501        0.0951274507
 C         -0.6286315821       -3.6913815110        0.2140443020
 C          0.7377087992       -3.6612612840        0.3838940524
 C          1.4088789550       -2.4389331435        0.3724359746
 C          0.7230329033       -1.2327925825        0.2147407956
 C          1.4216809477        0.0114391181        0.1240569678
 C          2.8717849814        0.0021781015       -0.0446240665
 C          3.7269913757        0.6863225868        0.8237219041
 C          5.0930489698        0.6803308724        0.6173112573
 C          5.6364502654        0.0008864565       -0.4613055458
 C          4.8010388734       -0.6900131006       -1.3256202629
 C          3.4370466893       -0.6973721063       -1.1165783347
 C          0.7023620078        1.2436509358        0.1543161787
 C          1.3421524989        2.4848395222        0.0900651792
 C          0.6300139475        3.6776666461        0.2073009890
 C         -0.7356592750        3.6481505769        0.3822376624
 C         -1.4073634590        2.4259795030        0.3760547599
 C         -0.7233703326        1.2193157463        0.2149872929
 C         -3.7350452873       -0.6945693546        0.8102678798
 C         -5.1013146672       -0.6660231003        0.6065585510
 H         -6.7054211561        0.0533460298       -0.6197817066
 H         -5.2034286073        1.2778246979       -2.1521359957
 H         -2.7724697780        1.2352470628       -1.7905942699
 H         -2.4095964252       -2.5419415241       -0.0534183496
 H         -1.1572576680       -4.6324315956        0.1799879344
 H          1.2979013247       -4.5758937855        0.5084743781
 H          2.4815673147       -2.4264001422        0.4929349340
 H          3.3115888358        1.1947257639        1.6820039115
 H          5.7402982106        1.2078111170        1.3032064453
 H          6.7037640988        0.0054511719       -0.6251933834
 H          5.2165089647       -1.2225953701       -2.1689510468
 H          2.7856212166       -1.2226031833       -1.8004317315
 H          2.4097221134        2.5263067072       -0.0599600631
 H          1.1590184328        4.6183246755        0.1694271220
 H         -1.2953348249        4.5629820976        0.5073855091
 H         -2.4792466149        2.4149920543        0.5033144602
 H         -3.3265158515       -1.2182877513        1.6625470042
 H         -5.7546057096       -1.1939502558        1.2863619872
  44
        -64.76522245
 C         -5.6280662077        0.0645738538       -0.4859709400
 C         -4.7663591270        0.7307649491       -1.3440289140
 C         -3.4056329409        0.7087893954       -1.1166405253
 C         -2.8699254459        0.0047884772       -0.0321812619
 C         -1.4217438483       -0.0273615501        0.1504848434
 C         -0.7140340903       -1.2690950004        0.1692188214
 C         -1.3783841135       -2.4958109678        0.0919516132
 C         -0.6850583643       -3.7057593653        0.0816009020
 C          0.6910865959       -3.7052472676        0.0891984302
 C          1.3826757668       -2.4944506605        0.1019466190
 C          0.7156654552       -1.2685159921        0.1685637047
 C          1.4217149658       -0.0267212288        0.1354461120
 C          2.8689162338        0.0039126702       -0.0643128067
 C          3.3892793585        0.6763899736       -1.1751533882
 C          4.7477237212        0.6976286974       -1.4170270685
 C          5.6210505190        0.0633799050       -0.5467967466
 C          5.1217043708       -0.5880362385        0.5696123950
 C          3.7610642688       -0.6226972873        0.8090815733
 C          0.7130889635        1.2090749846        0.2413103766
 C          1.3855575162        2.4231815308        0.4035906930
 C          0.6922006236        3.6230022887        0.5556940033
 C         -0.6849811521        3.6215732486        0.5765151241
 C         -1.3805104227        2.4207924391        0.4407262538
 C         -0.7113336246        1.2085305781        0.2554542226
 C         -3.7514287202       -0.6518653500        0.8308354344
 C         -5.1142500104       -0.6178379264        0.6051938435
 H         -6.6928143980        0.0813118260       -0.6649790624
 H         -5.1586255183        1.2652028592       -2.1972519811
 H         -2.7333843016        1.2133334211       -1.7959274338
 H         -2.4545629293       -2.5141398269        0.0222371484
 H         -1.2358574866       -4.6339631467        0.0485054833
 H          1.2429932879       -4.6330123804        0.0635211175
 H          2.4595413142       -2.5107753419        0.0422422874
 H          2.7075409651        1.1587815092       -1.8610781834
 H          5.1289517157        1.2083490107       -2.2895461848
 H          6.6840224050        0.0807833652       -0.7361507409
 H          5.7991128819       -1.0705277464        1.2595233133
 H          3.3801050056       -1.1072891185        1.6966894483
 H          2.4647035131        2.4324745521        0.4279809433
 H          1.2427702882        4.5449781584        0.6694142005
 H         -1.2337280260        4.5422352073        0.7081692717
 H         -2.4585786681        2.4287940784        0.4950848438
 H         -3.3600403155       -1.1592623505        1.7009412190
 H         -5.7823915246       -1.1245113647        1.2867761979
