  44
  -64.4721149188000       0.461136772153543      !
 C         -5.6786821181        0.0041105098        0.0268580320
 C         -4.9919128164       -0.6554328272       -0.9803698647
 C         -3.6109678776       -0.6649229779       -0.9917607481
 C         -2.8840932122       -0.0016577299        0.0010298958
 C         -1.4227826081       -0.0032261165       -0.0094833015
 C         -0.7127523639       -1.2418191517        0.0358785143
 C         -1.3798729196       -2.4630787825        0.1648211004
 C         -0.6857975452       -3.6693518279        0.2525601067
 C          0.6907034320       -3.6678747023        0.2581016564
 C          1.3831244167       -2.4602561158        0.1746149876
 C          0.7148218512       -1.2404761160        0.0392769564
 C          1.4233456253       -0.0006707737       -0.0064580144
 C          2.8842733858        0.0015080297        0.0021901624
 C          3.5927943015        0.6763371951        1.0008137265
 C          4.9735948912        0.6716509869        1.0126342435
 C          5.6792601708        0.0052455329        0.0230568630
 C          4.9901602756       -0.6625877904       -0.9771482056
 C          3.6092923644       -0.6708562409       -0.9861165201
 C          0.7128728537        1.2377044036       -0.0585941348
 C          1.3793219811        2.4585506844       -0.1937126330
 C          0.6845601605        3.6643736018       -0.2829821508
 C         -0.6919702004        3.6628495923       -0.2835674129
 C         -1.3838638145        2.4554225822       -0.1949090008
 C         -0.7144298207        1.2362013614       -0.0596056010
 C         -3.5900062924        0.6652045809        1.0066235101
 C         -4.9708480436        0.6618635740        1.0207853417
 H         -6.7584894995        0.0063796117        0.0367377019
 H         -5.5375996012       -1.1633713672       -1.7625499441
 H         -3.0784723861       -1.1636250445       -1.7888928802
 H         -2.4576691083       -2.4765519364        0.2144855134
 H         -1.2360273754       -4.5950458177        0.3326398703
 H          1.2422340456       -4.5923254953        0.3433903001
 H          2.4605458899       -2.4719517072        0.2327590010
 H          3.0453010665        1.1792738585        1.7851529662
 H          5.5043450376        1.1881622927        1.7994522294
 H          6.7590535551        0.0065396780        0.0312308643
 H          5.5339870356       -1.1776323765       -1.7559750391
 H          3.0750457274       -1.1744549161       -1.7790810846
 H          2.4569968950        2.4724309573       -0.2463854516
 H          1.2344336598        4.5898486818       -0.3677508897
 H         -1.2438208835        4.5870549286       -0.3685362147
 H         -2.4615707784        2.4661492692       -0.2483626440
 H         -3.0402540479        1.1619921345        1.7932846058
 H         -5.4997799010        1.1712897621        1.8134927522
  44
  -64.4711085644000       0.158979561511329      !
 C         -5.6284868208        0.0085260273       -0.4853145267
 C         -4.7666510925        0.5518613272       -1.4258670688
 C         -3.4057123570        0.5582617952       -1.1987790903
 C         -2.8699476963        0.0054395290       -0.0300209985
 C         -1.4216194490       -0.0044048800        0.1540410720
 C         -0.7158962252       -1.2335940164        0.3388513083
 C         -1.3823117223       -2.4584030036        0.4277139518
 C         -0.6909531958       -3.6599786595        0.5794445933
 C          0.6851983348       -3.6608568898        0.5856999500
 C          1.3787560931       -2.4605405188        0.4350189398
 C          0.7138007996       -1.2356085869        0.3368730132
 C          1.4218183850       -0.0107639720        0.1365640302
 C          2.8688461763       -0.0097823747       -0.0667661912
 C          3.3890701143        0.5064102570       -1.2583544272
 C          4.7472795706        0.4925777679       -1.5020771839
 C          5.6205394185       -0.0205035507       -0.5552736995
 C          5.1213725762       -0.5151145356        0.6389839680
 C          3.7609430525       -0.5149018854        0.8821296627
 C          0.7153066722        1.2292868397        0.0760205015
 C          1.3899140244        2.4530106145        0.0730872035
 C          0.6986642484        3.6635992026        0.0631843613
 C         -0.6784942512        3.6673895057        0.0852140046
 C         -1.3761115500        2.4604708182        0.1126279088
 C         -0.7090984808        1.2331390783        0.0913559058
 C         -3.7515587084       -0.5277440504        0.9141809839
 C         -5.1145711505       -0.5219635805        0.6872062479
 H         -6.6934032576        0.0029191938       -0.6640162962
 H         -5.1589939360        0.9674813447       -2.3428258999
 H         -2.7333987652        0.9657709191       -1.9402939986
 H         -2.4585949338       -2.4840517389        0.3620367993
 H         -1.2432871177       -4.5832462417        0.6718645584
 H          1.2355770042       -4.5846213792        0.6844466661
 H          2.4555273994       -2.4866233951        0.3771073935
 H          2.7073561616        0.8934437376       -2.0022850872
 H          5.1283700516        0.8807496467       -2.4356468215
 H          6.6833286601       -0.0305622131       -0.7461791660
 H          5.7987608872       -0.9017038562        1.3868818183
 H          3.3801801412       -0.8751551593        1.8271397826
 H          2.4690998545        2.4636096471        0.0950629121
 H          1.2508475252        4.5915300890        0.0514949687
 H         -1.2256077646        4.5983508662        0.0924346069
 H         -2.4541048892        2.4775899010        0.1663617157
 H         -3.3600315595       -0.9142982361        1.8442363742
 H         -5.7827785346       -0.9312815215        1.4312783391
  44
  -64.4709656891000       0.136672252831053      !
 C         -5.6436996485        0.0163579514        0.4046913078
 C         -5.0927468884        0.5339925466       -0.7566534057
 C         -3.7238121753        0.5289974643       -0.9438563987
 C         -2.8736326094       -0.0050693889        0.0281966824
 C         -1.4213948334       -0.0078145443       -0.1255672504
 C         -0.7144629014       -1.2466749721       -0.0302098210
 C         -1.3911212705       -2.4682059337       -0.0076985683
 C         -0.7107332218       -3.6740822766        0.1594478010
 C          0.6564396031       -3.6698008142        0.3242976306
 C          1.3606591849       -2.4677259111        0.2650579706
 C          0.7115569841       -1.2523778713        0.0306128078
 C          1.4226857223       -0.0226451780       -0.1096666123
 C          2.8733810860        0.0179175384        0.0521987267
 C          3.7305602876       -0.7661249951       -0.7247935694
 C          5.0975601177       -0.7218942644       -0.5288292008
 C          5.6395837843        0.0961417627        0.4495695164
 C          4.8018168578        0.8851617041        1.2228344482
 C          3.4368142500        0.8538396128        1.0223560865
 C          0.7164743667        1.1934355533       -0.3667054382
 C          1.3943796929        2.3747022178       -0.6757298667
 C          0.7137990352        3.5787600657       -0.8550239177
 C         -0.6549978103        3.6180791110       -0.7093905715
 C         -1.3601384583        2.4453133758       -0.4413394924
 C         -0.7100902966        1.2136703596       -0.3238485494
 C         -3.4457245175       -0.5414486408        1.1868285608
 C         -4.8127357098       -0.5226937035        1.3748787278
 H         -6.7133198634        0.0298804947        0.5523200476
 H         -5.7361045564        0.9425898439       -1.5226642371
 H         -3.3020032510        0.9081789772       -1.8636492913
 H         -2.4640096307       -2.4818088513       -0.1260538144
 H         -1.2646518378       -4.6008075666        0.1742057942
 H          1.1927496117       -4.5919784781        0.4919576285
 H          2.4295525215       -2.4808928640        0.4110102146
 H          3.3158447248       -1.3849118475       -1.5076073607
 H          5.7463799559       -1.3272557535       -1.1453501081
 H          6.7076599987        0.1222634178        0.6063894814
 H          5.2162444141        1.5250464880        1.9885149826
 H          2.7836365307        1.4563486737        1.6373719930
 H          2.4684446047        2.3568126749       -0.7822983599
 H          1.2687167001        4.4744381237       -1.0910571364
 H         -1.1917649087        4.5498173762       -0.8088298616
 H         -2.4305639420        2.4962585864       -0.3163158073
 H         -2.7979395798       -0.9474491646        1.9506947568
 H         -5.2338837804       -0.9251141059        2.2848979193
  44
  -64.4709268762000       0.131172615841411      !
 C         -5.6794464271        0.0036708507       -0.0152630724
 C         -4.9748361148        0.5656510705       -1.0684368893
 C         -3.5941840100        0.5694400748       -1.0600260995
 C         -2.8836089064       -0.0023638460        0.0001433641
 C         -1.4234739948       -0.0033673414        0.0064056248
 C         -0.7125903082       -1.2362054585        0.1272887274
 C         -1.3735909594       -2.4666351450        0.1680713518
 C         -0.6803005782       -3.6596559408        0.3704940751
 C          0.6861477689       -3.6376173266        0.5392952423
 C          1.3773596976       -2.4301858120        0.4432003516
 C          0.7140177749       -1.2280881398        0.1836516636
 C          1.4233806259       -0.0019758248        0.0006315893
 C          2.8835746092       -0.0001124637       -0.0032765770
 C          3.6017898119        0.8080707781        0.8835702793
 C          4.9825039858        0.8062163656        0.8807174314
 C          5.6793409812        0.0091122894       -0.0139132524
 C          4.9808902959       -0.7932831751       -0.9025276466
 C          3.6001643021       -0.8044259650       -0.8948741426
 C          0.7122957747        1.2238317236       -0.1768037055
 C          1.3726455355        2.4271516741       -0.4384314858
 C          0.6798387795        3.6344104054       -0.5245978253
 C         -0.6852311117        3.6549020773       -0.3452385658
 C         -1.3761819949        2.4603646709       -0.1437254557
 C         -0.7137916028        1.2304860831       -0.1123511961
 C         -3.6079826708       -0.5705802549        1.0526365862
 C         -4.9887557981       -0.5607353613        1.0456834011
 H         -6.7592427006        0.0060389897       -0.0211540588
 H         -5.5063854068        1.0001038167       -1.9026886904
 H         -3.0478540591        0.9886937282       -1.8927560740
 H         -2.4441291357       -2.4991938323        0.0356329465
 H         -1.2243885726       -4.5916985878        0.4060910259
 H          1.2317867695       -4.5492458246        0.7321547740
 H          2.4480935556       -2.4274335016        0.5785052186
 H          3.0617460414        1.4145888405        1.5964754102
 H          5.5202295866        1.4280709805        1.5818530417
 H          6.7591475326        0.0130620670       -0.0184028138
 H          5.5174421383       -1.4116272079       -1.6077444165
 H          3.0588456629       -1.4144125516       -1.6038324261
 H          2.4421353920        2.4257008623       -0.5825522961
 H          1.2233437055        4.5470385621       -0.7189034431
 H         -1.2301734972        4.5866996087       -0.3725700451
 H         -2.4458348184        2.4912826083       -0.0036263730
 H         -3.0730311541       -0.9912025842        1.8919988115
 H         -5.5314386860       -0.9935394754        1.8738290552
  44
  -64.4707778782000       0.112038797662664      !
 C         -5.6378212622       -0.0063089542       -0.4593897493
 C         -4.7932334815        0.5731922812       -1.3940178680
 C         -3.4291194769        0.5791756147       -1.1882390471
 C         -2.8717304169       -0.0088585149       -0.0466618675
 C         -1.4227225435       -0.0073093264        0.1262518356
 C         -0.7054103657       -1.2281034212        0.3068160289
 C         -1.3467129234       -2.4668062476        0.3958183581
 C         -0.6357410527       -3.6374567549        0.6572912287
 C          0.7307405304       -3.5898316632        0.8219184951
 C          1.4042936707       -2.3791292093        0.6631341006
 C          0.7207284552       -1.1993951180        0.3614824819
 C          1.4217625678        0.0234533959        0.1214036279
 C          2.8717610347       -0.0089606472       -0.0453133240
 C          3.7287384503        0.7730844460        0.7340784642
 C          5.0946781401        0.7395394653        0.5295348156
 C          5.6362094163       -0.0659668120       -0.4595290876
 C          4.7990157736       -0.8542718223       -1.2341104825
 C          3.4351167022       -0.8336675166       -1.0253471072
 C          0.7048696703        1.2517755353        0.0032062666
 C          1.3470536411        2.4749048134       -0.2102502561
 C          0.6373076788        3.6745913197       -0.2373621483
 C         -0.7283328382        3.6690952153       -0.0597863622
 C         -1.4024285360        2.4564248436        0.0814667182
 C         -0.7208769553        1.2377791534        0.0667401387
 C         -3.7359898924       -0.5844360346        0.8890095440
 C         -5.1023027228       -0.5779005428        0.6837026164
 H         -6.7056136766       -0.0082763872       -0.6199393234
 H         -5.2019975530        1.0197015321       -2.2890226774
 H         -2.7709458094        1.0161172976       -1.9256211399
 H         -2.4145886889       -2.5250402674        0.2537878561
 H         -1.1662232149       -4.5746973472        0.7369742527
 H          1.2892058895       -4.4839180374        1.0556160221
 H          2.4770647179       -2.3543199727        0.7809652272
 H          3.3147608409        1.3819989998        1.5249809044
 H          5.7433010886        1.3445007739        1.1467295035
 H          6.7034478982       -0.0833123190       -0.6230528929
 H          5.2130211455       -1.4853885877       -2.0072581153
 H          2.7823229511       -1.4361417398       -1.6407846979
 H          2.4146270060        2.4958622953       -0.3644575097
 H          1.1681314382        4.6027777411       -0.3884045505
 H         -1.2861557274        4.5934586362       -0.0455981198
 H         -2.4742672395        2.4629915697        0.2094039179
 H         -3.3280583814       -1.0024982629        1.7980600489
 H         -5.7562841615       -1.0187908960        1.4223181819
