107
 energy: -152.394956613673 gnorm: 0.000209041027 xtb: 6.7.1 (edcfbbe)
C           -6.90693028608013        3.00481103407436       -3.31420488251636
C           -5.99076827613923        2.84447553823372       -2.09802432400825
C           -6.80678647886487        3.17187364101547       -0.83899537387787
C           -4.83016381306324        3.83988296771189       -2.23982946192049
C           -5.42383181023153        1.43987281562791       -1.96641329128316
C           -5.72561794056628        0.41427190013063       -2.85875916700133
C           -5.19935745518699       -0.85955085186169       -2.71753546831338
C           -4.34850004938431       -1.12411289277295       -1.65838000981858
C           -4.04216594555900       -0.10032973022733       -0.74892204316117
C           -4.56311817770312        1.16180765512745       -0.90171024614373
C           -3.09842756939366       -0.60574147397027        0.32841404736881
C           -3.71743676546558       -0.62208118189805        1.71110010986680
C           -2.90274144235916       -0.69630266621308        2.83550877515426
C           -3.45555359393917       -0.77306275452334        4.10058674910927
C           -4.83076932743135       -0.78195506622627        4.26011495284820
C           -5.64786570413948       -0.71778099696309        3.14504465992540
C           -5.09556430063634       -0.64269773553612        1.87838425802507
C           -1.84520413415541        0.23314796353045        0.26067305305685
C           -0.77418006488382       -0.17062788235826       -0.55366735112151
C            0.38406862823645        0.58747901940365       -0.64473704387476
C            0.45901419463604        1.76668889939540        0.07497916976445
C           -0.65466678327826        2.23753350396272        0.83963094883697
C           -1.79683682573773        1.44590471395149        0.93802292554108
C           -0.28926036325708        3.51357228271892        1.35074322448357
C           -0.93592986848133        4.45627114074522        2.15232710053118
C           -0.25256966746532        5.60911223953510        2.50468354769380
C            1.05307713572865        5.83809372882868        2.08646074764197
C            1.71875143018515        4.91285676326384        1.27698647767056
C            1.03618543047811        3.77573823090698        0.89985683927951
N            1.46923753017888        2.69974356222464        0.13213504197663
C            2.73130620990582        2.55774681273240       -0.42391374212688
C            3.32046220747684        3.62652826425254       -1.14869895731273
C            4.57666560055529        3.46631843535933       -1.69281398699990
C            5.28631749717989        2.28985327882007       -1.52534377857681
C            4.71046124838950        1.22569414802991       -0.78481283614899
N            5.43816854206069        0.05786231865944       -0.57008678080598
C            4.96641918197763       -1.23692573184265       -0.69829449257976
C            3.73698422026311       -1.69013479761029       -1.14511687989149
C            3.52550325665138       -3.05922551396983       -1.20140461829629
C            4.52239876613447       -3.95823551693818       -0.82857050502145
C            5.76531823859348       -3.51643338195565       -0.41624471869587
C            6.00161475105730       -2.14634499529513       -0.35624981075590
C            7.14284242631421       -1.35688070193982       -0.01007929270287
C            8.43199588866605       -1.66715212114426        0.41083815618769
C            9.30023153196576       -0.63277889207605        0.70576011454941
C            8.89962747014900        0.69764194172384        0.60126326741319
C            7.62127005793136        1.03214833057606        0.17938333331910
C            6.75491755975671        0.00204959786214       -0.14778092581171
C            3.43547283246884        1.36563042581101       -0.26322368382828
C           -2.89570776091053       -2.04501899716301       -0.10685062631474
C           -2.11520857142090       -3.01057518888841        0.48173719481235
C           -2.06262792288447       -4.29664823665828       -0.06263598693188
C           -1.16688738822379       -5.33359467051935        0.59654230214894
C           -1.57337964685324       -5.49265728995956        2.06845418866222
C           -1.25734295177941       -6.70895639822249       -0.07040438681098
C            0.28855318912268       -4.85195977043163        0.50471278826697
C           -2.82206506717374       -4.56632553018517       -1.19806445998096
C           -3.61312836295383       -3.60018804473607       -1.79830612765041
C           -3.65050834217255       -2.32767295511842       -1.25502318527189
H           -7.76543950005505        2.34024922630623       -3.24916485346461
H           -7.27717354023222        4.02730705910354       -3.35585729389628
H           -6.36933360521612        2.80511869493335       -4.23830765543916
H           -7.23124442857236        4.17068682586602       -0.91652277688478
H           -7.62089147679260        2.45909098622935       -0.72295205339848
H           -6.19036378412122        3.13252917731826        0.05480801266630
H           -4.17619471238926        3.81687382122764       -1.37250987390373
H           -5.21566005585268        4.85149386323966       -2.34902938514174
H           -4.23549924195474        3.59991020273488       -3.11896007551925
H           -6.38436463606526        0.59839506803293       -3.69177733041994
H           -5.45000404805917       -1.63255788945832       -3.42910559245883
H           -4.30558755347197        1.93166267821104       -0.19103274683203
H           -1.82832114980043       -0.68125177568319        2.71980560872513
H           -2.80972395635049       -0.82601577319361        4.96522074965175
H           -5.26267229315810       -0.83997111717246        5.24837125856792
H           -6.72206692159407       -0.72727115295787        3.26000008345764
H           -5.74114655453105       -0.59737758592193        1.01342064379725
H           -0.85129154689549       -1.08794918572071       -1.11464314961948
H            1.19350275542181        0.26959519089320       -1.28273432404264
H           -2.62741049167780        1.76961364867565        1.54666613691072
H           -1.94506228835735        4.28288642162672        2.49303878015019
H           -0.74088413488927        6.34438475318032        3.12777181760214
H            1.56624082164398        6.73581818149354        2.39327157382992
H            2.74168036234078        5.08412276477919        0.97872081943321
H            2.75209766943639        4.52701972443772       -1.31630415026381
H            5.01352628892953        4.27027483197736       -2.26689072278028
H            6.25100475744116        2.15402076557383       -1.98601055145259
H            2.96556865676746       -1.00517007145965       -1.45845707482335
H            2.57204990610066       -3.43133199691626       -1.54322874607071
H            4.32002726204320       -5.01802524723759       -0.87661130901765
H            6.54278779531114       -4.21585712847283       -0.14919191251684
H            8.74154947283799       -2.69656577332309        0.50820670432110
H           10.30447841424691       -0.85555232325644        1.03502639856994
H            9.59315681050266        1.48336180481198        0.85966264684653
H            7.31159564093986        2.06482324832098        0.12753480626751
H            3.00928200180534        0.57481678614844        0.33580334732214
H           -1.53993549549387       -2.76320829408415        1.36065233809885
H           -0.95700049093135       -6.25109577548896        2.54674328801492
H           -1.45523900897908       -4.56361845655116        2.61874886312989
H           -2.61513979935794       -5.79893489241489        2.13890639891455
H           -0.60774601064069       -7.40789631984420        0.45289524370461
H           -0.93386286341566       -6.66546062123772       -1.10786937890487
H           -2.27233419519199       -7.09750990977749       -0.02860041187924
H            0.58077083297899       -4.74588587588818       -0.53798064698041
H            0.95473654055111       -5.57070903873076        0.97715141464404
H            0.42172652409410       -3.89083932360400        0.99383101125245
H           -2.80499641691434       -5.54953119319089       -1.63938614311512
H           -4.18771819774509       -3.84032021416859       -2.68084359516607
