  107
       -152.50496508
 C         -6.7893176039        3.0276580625       -3.4152185246
 C         -5.9277309062        2.8529064944       -2.1616228446
 C         -6.7877490109        3.1972460938       -0.9371080245
 C         -4.7448751641        3.8273381685       -2.2580504087
 C         -5.3938023800        1.4376935106       -2.0035740018
 C         -5.7014152959        0.4106692316       -2.8901538025
 C         -5.1999203469       -0.8719028448       -2.7289707082
 C         -4.3713211366       -1.1399083177       -1.6553267950
 C         -4.0621366734       -0.1171877161       -0.7486133956
 C         -4.5610802788        1.1520457789       -0.9190862703
 C         -3.1380477897       -0.6253819621        0.3418882777
 C         -3.7869373838       -0.6477318846        1.7119404819
 C         -3.0008205077       -0.7447783365        2.8547651131
 C         -3.5840725465       -0.8291234264        4.1056033694
 C         -4.9625770474       -0.8229691820        4.2333426502
 C         -5.7519370431       -0.7357054762        3.1002024284
 C         -5.1689520227       -0.6532948473        1.8478697761
 C         -1.8681323971        0.1997294620        0.3143395348
 C         -0.7909421880       -0.1959375125       -0.4824090917
 C          0.3646544878        0.5541461135       -0.5708861021
 C          0.4394604067        1.7290829328        0.1594451402
 C         -0.6570016847        2.1672975174        0.9340596847
 C         -1.8082284555        1.3974231474        1.0097167263
 C         -0.2769053700        3.4328010878        1.4974014603
 C         -0.9116004792        4.3295609826        2.3462015482
 C         -0.2379847905        5.4745886288        2.7219012662
 C          1.0568054454        5.7241758402        2.2725782001
 C          1.7099033094        4.8464211452        1.4283612884
 C          1.0303869032        3.7043213412        1.0312126591
 N          1.4535086233        2.6639714261        0.2279499442
 C          2.7047589711        2.5520602913       -0.3919637805
 C          3.1883074316        3.5826723658       -1.1928306565
 C          4.4212233562        3.4511948591       -1.8053572831
 C          5.1756337580        2.3051494211       -1.6349115515
 C          4.7052026614        1.2783874394       -0.8183421052
 N          5.4826887357        0.1333688429       -0.6100202269
 C          5.0460189223       -1.1768854573       -0.6805794561
 C          3.7977231794       -1.6809091183       -1.0143932097
 C          3.6325032594       -3.0524403154       -1.0262657069
 C          4.6851243181       -3.9138967575       -0.7279731213
 C          5.9388123017       -3.4211896510       -0.4262327621
 C          6.1264902587       -2.0454624611       -0.4044345090
 C          7.2675050327       -1.2112991945       -0.1510868607
 C          8.5881127521       -1.4800702659        0.1831586205
 C          9.4472561426       -0.4196627343        0.3895137260
 C          8.9976258360        0.8945462300        0.2863682977
 C          7.6882984024        1.1863199789       -0.0452880352
 C          6.8274891047        0.1250744944       -0.2862659624
 C          3.4682362480        1.4067231766       -0.1966601399
 C         -2.9406757891       -2.0675431901       -0.0866098453
 C         -2.1718087085       -3.0368049759        0.5123312268
 C         -2.1243395864       -4.3250249831       -0.0254522185
 C         -1.2345724768       -5.3627781070        0.6413752017
 C         -1.6370616860       -5.5070853988        2.1157264160
 C         -1.3357974948       -6.7431131376       -0.0134644385
 C          0.2233319398       -4.8902443884        0.5404621260
 C         -2.8787248949       -4.5954145448       -1.1626862099
 C         -3.6578902478       -3.6248036363       -1.7735305873
 C         -3.6880281685       -2.3507940544       -1.2375623708
 H         -7.6683837722        2.3882842952       -3.3800358576
 H         -7.1285547321        4.0596897085       -3.4806046936
 H         -6.2201793660        2.8036484561       -4.3145484912
 H         -7.1896117658        4.2039893170       -1.0314882635
 H         -7.6193689676        2.5001474953       -0.8541266338
 H         -6.2082088624        3.1458614012       -0.0194509499
 H         -4.1332673512        3.8038606938       -1.3603846613
 H         -5.1072923552        4.8439986777       -2.3959654065
 H         -4.1133287933        3.5675794550       -3.1053058024
 H         -6.3447861741        0.5979431216       -3.7343959086
 H         -5.4545916105       -1.6466565777       -3.4373681286
 H         -4.3023942057        1.9220483678       -0.2086104544
 H         -1.9238040742       -0.7409708497        2.7661894911
 H         -2.9592472831       -0.8999472836        4.9844133644
 H         -5.4182552932       -0.8876701313        5.2105056081
 H         -6.8287303638       -0.7344319694        3.1893995391
 H         -5.7943063668       -0.5928435225        0.9691737714
 H         -0.8650489425       -1.1128774291       -1.0475714153
 H          1.1758406061        0.2404196799       -1.2095825366
 H         -2.6407719822        1.7262621647        1.6137825031
 H         -1.9092181291        4.1278914688        2.7066453964
 H         -0.7140655108        6.1858885888        3.3802768738
 H          1.5634055879        6.6220388897        2.5945729672
 H          2.7196504690        5.0400192696        1.0986315113
 H          2.5892783319        4.4674258605       -1.3438939292
 H          4.7912840733        4.2444396546       -2.4374766468
 H          6.1215025287        2.1927236605       -2.1415718490
 H          2.9784548054       -1.0283879116       -1.2707557246
 H          2.6655073127       -3.4634545407       -1.2748552821
 H          4.5157518082       -4.9801423828       -0.7442260857
 H          6.7613095423       -4.0872133447       -0.2132614172
 H          8.9294947052       -2.4993532731        0.2826268874
 H         10.4794773593       -0.6060205836        0.6458665988
 H          9.6867884297        1.7048590036        0.4733529245
 H          7.3484125937        2.2093781502       -0.1001677416
 H          3.1096897330        0.6301013499        0.4617415917
 H         -1.6002576591       -2.7888842762        1.3935225690
 H         -1.0266134602       -6.2682045214        2.5973399933
 H         -1.5076609972       -4.5755139522        2.6591360730
 H         -2.6815494538       -5.8021292461        2.1920804003
 H         -0.6913444041       -7.4426901868        0.5154270655
 H         -1.0129116462       -6.7112870440       -1.0515207934
 H         -2.3538822547       -7.1230042919        0.0324104904
 H          0.5105032355       -4.7913573220       -0.5046811762
 H          0.8877707685       -5.6102232640        1.0136983030
 H          0.3631943783       -3.9271851809        1.0241811641
 H         -2.8678179249       -5.5811860997       -1.5985601412
 H         -4.2291365084       -3.8656844563       -2.6581379366
