107
 energy: -152.503349608241 gnorm: 0.000040406690 xtb: 6.7.1 (edcfbbe)
C           -4.05369557944869        5.49116557324323        1.07305379171114
C           -2.92050361977044        5.41110177390950        0.04016239231486
C           -1.56178636279080        5.51906218878303        0.74742637447343
C           -3.05805443184407        6.60341659413502       -0.91041351473165
C           -2.99844140381585        4.07158082613844       -0.67567862007692
C           -3.16944759906108        3.95893207637157       -2.05169475313321
C           -3.23657946024121        2.72666035629924       -2.68356776556097
C           -3.12836520773649        1.57536524873134       -1.92598731914926
C           -2.95147825368954        1.67444156367764       -0.53936790739156
C           -2.89258516360757        2.90077928634032        0.07870520558122
C           -2.88008304192642        0.29757531021276        0.09374890101056
C           -4.03958222326142        0.18397363494661        1.06299614922599
C           -5.27316148137041       -0.30010474940591        0.64807874792530
C           -6.34273779766926       -0.34242162671660        1.52518132312150
C           -6.19731514881065        0.10707066443424        2.82579757177835
C           -4.97375673553860        0.60184762216412        3.24394741255970
C           -3.90394608377285        0.64218725390422        2.36888722909650
C           -1.54786742708335       -0.01441619443180        0.74464301119275
C           -0.39926074364954        0.69583624243741        0.38802144599244
C            0.84261267364333        0.39110385997755        0.91141693368550
C            0.93429269663923       -0.66843954589121        1.80068606159076
C           -0.21955295060185       -1.38885160238252        2.18144672051607
C           -1.45633640920438       -1.06287242417082        1.64663131863037
C            0.20771032712859       -2.37424041016386        3.13482371288618
C           -0.45489667997642       -3.37062183407428        3.83877262209752
C            0.27716061688216       -4.18409063193353        4.68033047413190
C            1.65457879972765       -4.02318234195036        4.81113870292968
C            2.33558225622237       -3.03800356439158        4.12156505321524
C            1.60138638089700       -2.20011474475032        3.29467688984097
N            2.02875176369340       -1.16578916984501        2.48379048849271
C            3.34400065352665       -0.69858765295016        2.38334404542116
C            4.07277985093305       -0.40715277203609        3.53402603490583
C            5.37461849402494        0.04570237615632        3.42645600751359
C            5.96093604685212        0.21778464814937        2.18619001243510
C            5.23210016951266       -0.05911834983869        1.03196943892949
N            5.81872226833104        0.11182631268091       -0.22764235116112
C            6.50635051852717        1.23303630191619       -0.65129428233026
C            6.71104432719560        2.44254316314271       -0.00301237270325
C            7.42194931236871        3.42080857432770       -0.67167184689981
C            7.91252850223386        3.21271149741713       -1.95873350970134
C            7.68877277383996        2.02126795882544       -2.61910715865927
C            6.97708603399342        1.02279509554198       -1.96742313992311
C            6.55351147761552       -0.29598510234417       -2.34691256447254
C            6.72784130295552       -1.06032853023509       -3.49302725353753
C            6.19867506784525       -2.33487017093986       -3.52472214262227
C            5.51666408159436       -2.85392746493870       -2.42668687236434
C            5.33082023008699       -2.11277879657568       -1.27525936235860
C            5.83910179528030       -0.82216329856686       -1.24636264662217
C            3.92404060432717       -0.51868027899212        1.13264452094338
C           -3.02241474088675       -0.59557394881264       -1.12452389050442
C           -3.00686529971036       -1.96878213566935       -1.17999756135909
C           -3.13976408304386       -2.62206629085052       -2.40742137945730
C           -3.12359451368948       -4.14261262654271       -2.43020815355649
C           -3.27010164106147       -4.71864739189474       -3.84119879180771
C           -1.79047304121360       -4.63574407149228       -1.84939500381989
C           -4.28871866198873       -4.66573096678755       -1.57777368093231
C           -3.28264366491999       -1.84988132918223       -3.55582074127715
C           -3.29201109871967       -0.46409847579287       -3.51103020910851
C           -3.15912279860865        0.17031010196287       -2.28988416580806
H           -3.97299986086342        4.70110123957925        1.81444309305830
H           -4.02344963442934        6.44846114098779        1.58950890377590
H           -5.01858794114084        5.39498559228746        0.57936363287653
H           -1.48011504927007        6.47595180571471        1.25894019629247
H           -1.43227179126209        4.72848047124342        1.48141071738944
H           -0.75387337607522        5.44550668356640        0.02201709687710
H           -2.25938659761660        6.61055587588429       -1.64865350217308
H           -2.99671259706418        7.52900210817859       -0.34122253794015
H           -4.01764910012056        6.58749023690741       -1.42196441670501
H           -3.25572859850365        4.84356771667710       -2.66139366032275
H           -3.37239874559660        2.67292509633539       -3.75386793652692
H           -2.76050905778981        2.94780708667948        1.14882503314531
H           -5.39820450689959       -0.64805066970966       -0.36688333212604
H           -7.29475361526205       -0.72703015439394        1.18888682880018
H           -7.03257800254850        0.07388183799361        3.50984327060529
H           -4.85139313489015        0.95826562765020        4.25674263936513
H           -2.94991165489176        1.02109923237090        2.70690319145552
H           -0.48438379209608        1.51173305489468       -0.31405387274786
H            1.70915032609669        0.97353070646012        0.63712002779303
H           -2.33698978246344       -1.61047463493710        1.94772831616892
H           -1.52018613440262       -3.50413473419396        3.72427804034159
H           -0.21858785297899       -4.96346573085745        5.23961609987607
H            2.20402389541858       -4.68548565487120        5.46381808442107
H            3.40606911801937       -2.93502745181938        4.21697489825240
H            3.61017943528774       -0.52330331937562        4.50190891701550
H            5.93952506743556        0.26598408941115        4.31980874463603
H            6.98422102386289        0.54989706553040        2.10392835492929
H            6.31948881848330        2.62154950186503        0.98713710767103
H            7.59801446958688        4.36951089151238       -0.18631413191734
H            8.46663558164550        4.00109261860641       -2.44602533665099
H            8.05375316959810        1.86544738388261       -3.62307447349949
H            7.27105307613383       -0.66283660941168       -4.33703815452789
H            6.32070919370954       -2.94535224496091       -4.40703028348057
H            5.12688977703023       -3.86007105006694       -2.47408028929774
H            4.81745070806282       -2.53431380188829       -0.42423492623848
H            3.35872695111645       -0.73772442061224        0.23980934311649
H           -2.89321354775002       -2.53394801775041       -0.26764446353100
H           -3.24848332366251       -5.80566118693953       -3.79238260119810
H           -4.21559449770358       -4.42231784318011       -4.28967808655320
H           -2.45339155339436       -4.39549450972244       -4.48258177613450
H           -1.75265918532525       -5.72304923371673       -1.86860792079680
H           -1.65784316945612       -4.30871951740265       -0.82176366154209
H           -0.95987481074572       -4.25051273610455       -2.43747355562709
H           -4.20443897949897       -4.33656749660629       -0.54579968947547
H           -4.30260580382828       -5.75368173312709       -1.58844632707840
H           -5.23575652505529       -4.30468465146487       -1.97407627647923
H           -3.38840810474894       -2.32393610274451       -4.51806239649883
H           -3.40142596126931        0.10701183037600       -4.42139456190356
