  107
       -152.39555511
 C         -7.0151593418        2.8606315070       -3.2862494752
 C         -6.0703337789        2.7301652968       -2.0885168332
 C         -6.8678784898        3.0608339842       -0.8146281036
 C         -4.9355502166        3.7542422555       -2.2620943980
 C         -5.4745877755        1.3481928321       -1.9512105076
 C         -5.7825424550        0.2807253221       -2.8329497113
 C         -5.2573417972       -0.9677754716       -2.6887619456
 C         -4.3586915766       -1.2324625238       -1.6076993409
 C         -4.0489429891       -0.1412943591       -0.7032129073
 C         -4.5766908482        1.0940252301       -0.8832966302
 C         -3.0918389047       -0.6200236798        0.3710680995
 C         -3.7095266136       -0.6462592456        1.7561407707
 C         -2.9005585069       -0.7131634575        2.8852468090
 C         -3.4593407321       -0.8099479281        4.1460601989
 C         -4.8354615029       -0.8461548522        4.2976731222
 C         -5.6471974046       -0.7893524583        3.1782046340
 C         -5.0883811699       -0.6960944274        1.9159986183
 C         -1.8433356123        0.2333839890        0.3009613250
 C         -0.7829142651       -0.1483681896       -0.5264569678
 C          0.3607278724        0.6147747919       -0.6445518128
 C          0.4395231484        1.7914572761        0.0837942003
 C         -0.6485293363        2.2248220897        0.8751042000
 C         -1.7858684746        1.4394381405        0.9841581848
 C         -0.2703684814        3.4983239518        1.4219790025
 C         -0.9020048865        4.3985174066        2.2691538772
 C         -0.2323621743        5.5525188769        2.6263003898
 C          1.0557995735        5.8061293199        2.1619295196
 C          1.7057508833        4.9245430291        1.3179388866
 C          1.0291024505        3.7758076143        0.9367466420
 N          1.4472229291        2.7331794500        0.1319847692
 C          2.7056497861        2.6051087768       -0.4694001880
 C          3.2210550127        3.6311401946       -1.2575059515
 C          4.4664291371        3.4847061071       -1.8409464152
 C          5.2024879634        2.3288632178       -1.6560826566
 C          4.6967720016        1.3040489947       -0.8574271125
 N          5.4494280186        0.1449413273       -0.6366634963
 C          4.9918552335       -1.1561340202       -0.7342987375
 C          3.7505503582       -1.6326824109       -1.1280704025
 C          3.5599476044       -3.0006570850       -1.1593222274
 C          4.5813278764       -3.8844314935       -0.8199426198
 C          5.8292959959       -3.4187272228       -0.4576891631
 C          6.0427357586       -2.0468889777       -0.4170980474
 C          7.1867501254       -1.2360176145       -0.1091970836
 C          8.4863647445       -1.5308356150        0.2814823073
 C          9.3550324807       -0.4875310012        0.5308385775
 C          8.9358442024        0.8355681068        0.4129582765
 C          7.6479168901        1.1534399971        0.0252047754
 C          6.7785104069        0.1095602800       -0.2559221992
 C          3.4478936236        1.4473566282       -0.2642181793
 C         -2.8703640799       -2.0611630279       -0.0455064386
 C         -2.0750562008       -2.9993032890        0.5244820770
 C         -2.0146112208       -4.3143902935       -0.0033138089
 C         -1.0972777679       -5.3216938785        0.6508401476
 C         -1.4546402856       -5.4469550199        2.1415962292
 C         -1.1916200012       -6.7158759062        0.0244843302
 C          0.3545678930       -4.8308462960        0.5106396842
 C         -2.8130536352       -4.6162997747       -1.1361539574
 C         -3.6221455376       -3.6969016489       -1.7321936908
 C         -3.6784412868       -2.3658508301       -1.2108516670
 H         -7.8567319911        2.1772035691       -3.1985153255
 H         -7.4098860096        3.8741092101       -3.3274410557
 H         -6.4926753656        2.6660532732       -4.2201733889
 H         -7.3060241549        4.0535296852       -0.8952690367
 H         -7.6699108538        2.3386341549       -0.6758161797
 H         -6.2333908084        3.0381970054        0.0668491002
 H         -5.3492771040        4.7552279619       -2.3668695551
 H         -4.3556051775        3.5234146672       -3.1533816805
 H         -4.2622283698        3.7507231901       -1.4093299765
 H         -6.4571730106        0.4592325559       -3.6549723357
 H         -5.5022348436       -1.7586083906       -3.3812934714
 H         -4.3203172172        1.8885086949       -0.1987960156
 H         -1.8259337892       -0.6761110004        2.7766391330
 H         -2.8180720746       -0.8561759061        5.0146582741
 H         -5.2717919853       -0.9204267261        5.2829714958
 H         -6.7217396005       -0.8213726941        3.2867471811
 H         -5.7279975058       -0.6603073165        1.0459775741
 H         -0.8622960684       -1.0679854674       -1.0867520510
 H          1.1603125647        0.3103348974       -1.3019491311
 H         -2.6090983414        1.7588848265        1.6057092877
 H         -1.8941565876        4.1934598495        2.6423403553
 H         -0.7070700263        6.2670797969        3.2820953933
 H          1.5603427054        6.7097781969        2.4704860832
 H          2.7110880311        5.1218852349        0.9776101681
 H          2.6371388972        4.5234563466       -1.4219377020
 H          4.8616529457        4.2750979736       -2.4613238365
 H          6.1602260664        2.2064635397       -2.1374771704
 H          2.9571883639       -0.9614065546       -1.4159102742
 H          2.5983419975       -3.3907247245       -1.4573330103
 H          4.3924156812       -4.9470625216       -0.8527857937
 H          6.6281896511       -4.1023609629       -0.2130109780
 H          8.8040669111       -2.5567874325        0.3907456304
 H         10.3710455824       -0.6944944766        0.8323749215
 H          9.6316338713        1.6318417305        0.6329521642
 H          7.3300941805        2.1829028039       -0.0422327542
 H          3.0642100412        0.6722797646        0.3818430819
 H         -1.4779481274       -2.7400115531        1.3856608336
 H         -0.8141025390       -6.1868926267        2.6171416401
 H         -1.3289717707       -4.5031712197        2.6641242658
 H         -2.4901271863       -5.7617969366        2.2529442946
 H         -0.5221492315       -7.3945213176        0.5495557095
 H         -0.8957886776       -6.6988085834       -1.0219926608
 H         -2.2016236457       -7.1116760335        0.1035876980
 H          0.6233690552       -4.7632640067       -0.5414991770
 H          1.0353371700       -5.5264090086        0.9968402080
 H          0.4880291522       -3.8505775734        0.9600474749
 H         -2.7829685252       -5.6128650325       -1.5468255366
 H         -4.2204156201       -3.9557574389       -2.5924539594
