107
 energy: -152.505106135568 gnorm: 0.000067171735 xtb: 6.7.1 (edcfbbe)
C           -6.93236673383510        3.00653979847386       -3.32351542760779
C           -6.01299726315680        2.84803514770160       -2.10950674156015
C           -6.82101166499916        3.19220018262766       -0.84993825796559
C           -4.84494259276707        3.83259481558919       -2.26443821814351
C           -5.45788235231003        1.43928482642384       -1.96792156658670
C           -5.78072725363339        0.40790845527765       -2.84390849402765
C           -5.26152277161976       -0.86914902584202       -2.69563663550588
C           -4.40061077984560       -1.12734947540483       -1.64527847183543
C           -4.07348961027224       -0.09963782282696       -0.75053687301794
C           -4.58852179128993        1.16462396431618       -0.90965341646050
C           -3.11838536341802       -0.59890913792783        0.31706641933617
C           -3.73220541884797       -0.61703065162688        1.70366475180395
C           -2.91609082788335       -0.70105997076480        2.82630972227895
C           -3.46599960640110       -0.77861384605159        4.09259459472828
C           -4.84068821224789       -0.77824271665563        4.25629985991756
C           -5.65974430725193       -0.70477169400257        3.14344081842882
C           -5.11011268492473       -0.62956186202028        1.87564572264548
C           -1.85209090370227        0.23047320344740        0.25949329214907
C           -0.77854271209807       -0.17629384769132       -0.53645560155324
C            0.37848646011447        0.57013409424067       -0.63675053108909
C            0.45748512589858        1.75421231736364        0.07830856912683
C           -0.63911775094622        2.20805281076521        0.84355996270671
C           -1.78990851634712        1.43934779097544        0.93527997199575
C           -0.25658119115805        3.48181075051041        1.38644392082657
C           -0.89318025566647        4.39690156922215        2.21396563138705
C           -0.21718770556346        5.54573763624515        2.57340829835876
C            1.08262579438199        5.78005810358718        2.13067365897347
C            1.73745508632034        4.88409684112049        1.30719313306320
C            1.05458198341072        3.73946079056088        0.92328569802224
N            1.47603993593826        2.68511124037651        0.13681704016948
C            2.73976550373857        2.54580629314419       -0.45058053331893
C            3.26631865409280        3.56242330369066       -1.24240880947502
C            4.51722241734774        3.40770328571000       -1.81161335310607
C            5.24760047922650        2.25126094100758       -1.60890376621688
C            4.73080666405957        1.23597705377893       -0.80656248074947
N            5.47820664126182        0.07677414967438       -0.56733702344099
C            5.01858044464145       -1.22393027530366       -0.65803932959090
C            3.77889582850631       -1.70114518485049       -1.05661076928866
C            3.58506206832161       -3.06872681967689       -1.07591462211292
C            4.60176708676166       -3.95176161208974       -0.72129147419712
C            5.84827947736069       -3.48568584139766       -0.35440903126595
C            6.06446217738116       -2.11425006919718       -0.32436612069652
C            7.20768903082819       -1.30307486174936       -0.01269464644456
C            8.50250722022500       -1.59735015377236        0.39330174909427
C            9.37068088270624       -0.55380398440212        0.64351451610969
C            8.95515836317298        0.76905524209203        0.51119384471075
C            7.67209849489482        1.08633749924257        0.10793391615967
C            6.80348504624124        0.04179997684576       -0.17403658962026
C            3.47644517917701        1.38808484203875       -0.22700618567597
C           -2.92538563400217       -2.04200005769192       -0.11051888643745
C           -2.13839346323745       -3.00625898551490        0.47313431917281
C           -2.09830667127435       -4.29612488855977       -0.06142742097568
C           -1.18874582700443       -5.32843491303125        0.58698313127757
C           -1.55311736568823       -5.46779084944472        2.07166402208268
C           -1.30247058359567       -6.71193376101991       -0.05926133930381
C            0.26462223655041       -4.85227225556824        0.44682069572627
C           -2.87781480186688       -4.57324279545337       -1.17998848783752
C           -3.67610632730230       -3.60818948951751       -1.77463848735767
C           -3.69943144100414       -2.33274420826298       -1.24175195097722
H           -7.79825053163464        2.35273978684134       -3.24825713470965
H           -7.29108831911228        4.03278013879271       -3.37432552548234
H           -6.40082953108532        2.79077716200391       -4.24753718254745
H           -7.23370697445123        4.19569716100948       -0.93119935020984
H           -7.64319941068963        2.48981513981017       -0.72761936308061
H           -6.20208418032222        3.14951564429125        0.04202259914777
H           -4.19032177759101        3.81507373768900       -1.39749890383113
H           -5.22260814865503        4.84587854485421       -2.38548372485886
H           -4.25306793579250        3.57733026358688       -3.14116660527508
H           -6.45045001942130        0.58724076940455       -3.66920312279759
H           -5.52924245156163       -1.64784717879723       -3.39484144462779
H           -4.31618007188746        1.93926578378911       -0.20944807560982
H           -1.84179897668070       -0.69271635938390        2.70969719221217
H           -2.81804083289719       -0.83950897297137        4.95522533586330
H           -5.27036341768863       -0.83676483029879        5.24555726200622
H           -6.73379451525263       -0.70762527259694        3.26079281290928
H           -5.75861882394245       -0.57812425797290        1.01333623069455
H           -0.85511458669464       -1.10055233001228       -1.08918426269478
H            1.18832974142335        0.24525911004382       -1.27146359222174
H           -2.61956064873837        1.77667496720035        1.53861715873121
H           -1.89435914503785        4.20654978815152        2.57063583911467
H           -0.69515175257800        6.27177454257273        3.21405825192601
H            1.59180185786191        6.68065611194124        2.44080450761377
H            2.75114760162900        5.06659983964734        0.98353209282416
H            2.68725493129003        4.45547451623104       -1.41978077696282
H            4.92126353543645        4.19156289068911       -2.43457580121955
H            6.20999391806742        2.12198910537963       -2.07919588240704
H            2.98940038164601       -1.03054739597678       -1.35645085935539
H            2.62434142724960       -3.45957595739795       -1.37563498169778
H            4.41045395394616       -5.01415170979814       -0.74562005316403
H            6.64369670416850       -4.16903666273359       -0.09794578204919
H            8.81704961138947       -2.62298377871760        0.51404674397566
H           10.38310808398143       -0.76030554126250        0.95705378308140
H            9.65017075342597        1.56564650968189        0.73242184120715
H            7.35670788902942        2.11577503529967        0.02971326378910
H            3.08401369755621        0.61992604403291        0.42201720279900
H           -1.54670360776382       -2.75300175873397        1.33946279960312
H           -0.92603613009100       -6.22293813547726        2.54129637970054
H           -1.41562560852154       -4.53289095840201        2.60727038550314
H           -2.59354357281105       -5.76887578281208        2.17580099812263
H           -0.64432966034615       -7.40776525983042        0.45755618214091
H           -1.00390010890173       -6.68417390763179       -1.10470255079060
H           -2.31839161633789       -7.09369729831639        0.01199382704186
H            0.52505579914513       -4.75978253520931       -0.60578023325617
H            0.94304160894289       -5.56700088808495        0.90795367322510
H            0.41372003657134       -3.88558584011652        0.92043473532148
H           -2.87242724568645       -5.56013478441352       -1.61337874611450
H           -4.26709144200796       -3.85427243908870       -2.64473134156183
