94
 energy: -127.765806231855 gnorm: 0.000083461228 xtb: 6.7.1 (edcfbbe)
C           -2.46501061183467       -3.55806684017646        3.68854764288267
C           -2.25063270831565       -2.21602654389965        3.05851063430922
C           -1.09650923846414       -1.93610930416914        2.33611001059246
C           -0.89849973252925       -0.70198302643974        1.75428615336125
C           -1.85786597277616        0.30526604870956        1.88706129049295
N           -1.66132646232023        1.55899314798611        1.30374916561161
C           -2.74414683755880        2.26464388004185        0.77807609369625
C           -3.80503230213054        1.59827986092324        0.15859749597145
C           -4.85785407786835        2.31185689891778       -0.37408576994605
C           -4.89234497186216        3.70187260973966       -0.31472369424263
C           -6.02730271192902        4.47048718175527       -0.91924124770868
C           -3.83242446725665        4.35983618743581        0.30229658098286
C           -2.77424486493155        3.66025926794734        0.84235725677969
C           -0.36881367409450        2.04517941426046        1.16168957208279
C            0.60601767548627        1.79994021041261        2.15857610517294
C            1.91768587805128        2.08285958978580        1.94215402204685
C            2.37621501459010        2.58975659572588        0.68457056826556
C            3.80163166245880        2.38928692778283        0.22105623427737
C            3.34295900158993        1.05971219142760       -0.32959679775755
C            3.21682950512713       -0.09698409892187        0.50303162629041
C            2.38877919546242       -1.12725282719371        0.17937400037024
C            1.63392268176696       -1.09896505979172       -1.01879013622106
N            0.62194343042642       -2.01585585752872       -1.26888492541186
C            0.71762202558857       -3.32267994680308       -0.78887733020996
C            1.94539953405969       -3.99080426428014       -0.80304115502836
C            2.04642005258201       -5.27161508721476       -0.30512608394117
C            0.93805157435182       -5.93139271028226        0.22067818805428
C            1.06647877888281       -7.32777608993115        0.74793309923976
C           -0.28121133358904       -5.26298021955619        0.22930358138744
C           -0.39761251542658       -3.97930275108126       -0.26294072139125
C           -0.54232620643782       -1.59024958391441       -1.91246152120334
C           -1.00909912378374       -0.28259357131588       -1.75469740487207
C           -2.15627763759419        0.13143170063281       -2.39732571866939
C           -2.88245116538193       -0.73473408865715       -3.20685974415912
C           -4.12725409886949       -0.27999961507833       -3.90514664018931
C           -2.41021486927947       -2.03494057268396       -3.36695166138852
C           -1.25901490489339       -2.46020911415112       -2.73929490741259
C            1.92249779852898       -0.07362643934640       -1.95030192891199
C            2.75859944063826        0.94983139396069       -1.63139133570570
C            4.30970825384174        3.39944943407416       -0.81189087818713
C            5.64534579819075        2.95191269119255       -1.40046651499932
C            6.69581199431144        2.81672193189007       -0.30554305642849
C            6.19868747939270        1.85178799365423        0.76321630947177
C            4.85775259053370        2.31477090325461        1.32761035201217
C            1.35059964646394        3.04536015021680       -0.20484641185003
C            0.03587551530202        2.77338759664101        0.01631261256109
C           -3.01225576726557        0.03496049134452        2.62789253003488
C           -3.20088156730739       -1.20690025730280        3.19516802936184
H           -3.46714488759132       -3.92735107305200        3.47604408747262
H           -1.73814067709643       -4.27738395709312        3.31901697683089
H           -2.35973623614727       -3.48905518465510        4.77180762026307
H           -0.34396699982090       -2.70252370090054        2.21584444123249
H           -0.00034581387929       -0.51199110271181        1.18803596014357
H           -3.78694900848999        0.52071816370004        0.08793864076566
H           -5.66818466870606        1.77987220784208       -0.85256565712756
H           -6.94394924405626        3.88502116910015       -0.90468233019610
H           -5.80241186624055        4.71803775441177       -1.95793953890140
H           -6.19408958471160        5.40166076114293       -0.38228608729920
H           -3.84275906253178        5.43857074192719        0.36715259648417
H           -1.96550805960828        4.18309610447756        1.33145999393479
H            0.28277034122455        1.39434164959615        3.10706109456803
H            2.62341449498279        1.91260629840702        2.73925806111462
H            3.75750993143783       -0.14447888363526        1.43457787097661
H            2.27280043134847       -1.96108847488185        0.85685786291730
H            2.81053936827024       -3.49525026171875       -1.21856969463928
H            3.00137666118541       -5.77709092983385       -0.32830312496216
H            0.15698343708075       -7.63712689759361        1.25703997778111
H            1.90046720774765       -7.40017807812743        1.44454483791265
H            1.25633686544031       -8.02409129313213       -0.06934166049736
H           -1.15470409134135       -5.75220541906196        0.63699968056792
H           -1.34853355685416       -3.46834698169789       -0.22982031489156
H           -0.46977537118704        0.40393740762883       -1.12122314612803
H           -2.50254395796738        1.14560803550280       -2.25692665102723
H           -3.92060991349270       -0.08882120902969       -4.95895648593670
H           -4.50447375038179        0.63782796648388       -3.46041125660604
H           -4.90100234650172       -1.04384762866977       -3.85189187234793
H           -2.95241737415126       -2.72181554165874       -4.00143327059177
H           -0.90084813330164       -3.46859082032549       -2.88773530695611
H            1.47151213416625       -0.12587669102918       -2.93141125309016
H            2.97272978532016        1.69697870419226       -2.37859531542361
H            4.43454599317399        4.36390454122559       -0.31263657600263
H            3.59618976965362        3.54392554659707       -1.62024085218971
H            5.97652376656700        3.67353276169977       -2.15119643007467
H            5.51338288314052        1.98647735229163       -1.89413121671545
H            7.63691207974152        2.45828298919448       -0.72842976415903
H            6.88181734067762        3.79526041354678        0.14464091291240
H            6.93096827857005        1.77695336252622        1.57074277433697
H            6.07582676260949        0.85867770442003        0.32479319901822
H            4.96752988709538        3.30931137026658        1.76767211367722
H            4.56050882793407        1.63652861073721        2.12439274788782
H            1.62055387816936        3.58676108363708       -1.09716001675252
H           -0.70875867565097        3.08208429190992       -0.70336905968408
H           -3.75412221357361        0.80945713956716        2.75797188335750
H           -4.09996589036288       -1.39901309834293        3.76357877766238
