94
 energy: -127.868357857200 gnorm: 0.000045999084 xtb: 6.7.1 (edcfbbe)
C           -3.34562624847733       -5.74240938924147        2.12161251135528
C           -3.62432812098482       -4.34362709354274        1.66084064411895
C           -2.72558167908499       -3.66827943033951        0.84389527590468
C           -2.98678967438313       -2.38864688582399        0.39721559301728
C           -4.16305180215745       -1.73845499693538        0.76895659785072
N           -4.42868646155204       -0.43648091429738        0.32995253605382
C           -5.73495317497250       -0.06074149320138       -0.00050608038503
C           -6.59822951826171       -0.96086482547517       -0.62555735385945
C           -7.88591104142842       -0.58413469126291       -0.94564129563822
C           -8.35365014419786        0.69564705673797       -0.66573207563822
C           -9.75490456379617        1.08604343057287       -1.02728645631471
C           -7.48887978351468        1.58855091631573       -0.04740260326991
C           -6.20007549885082        1.22097339204810        0.28716601819716
C           -3.38223173123275        0.48288205784687        0.20888561412975
C           -2.32895214388820        0.48696226277553        1.12322889418129
C           -1.28490907799961        1.37415379065680        0.97980216956071
C           -1.24858444698303        2.30030537435129       -0.06103796488569
C           -0.04165847564789        3.22727695293616       -0.16579224415045
C            1.16035395983433        2.29300528118131       -0.17433039135624
C            2.03413578716992        2.14144026516323        0.89616241474517
C            3.06319650000606        1.21960122918012        0.86361996642003
C            3.25213977194029        0.40307478651169       -0.24755639547541
N            4.28434507299724       -0.54018909338701       -0.28020061449814
C            5.52491780275579       -0.23896820073230        0.29048470566818
C            6.05138896951791        1.04863911623203        0.20580202840982
C            7.27400055495442        1.34334492638781        0.77686421373721
C            8.01180340324926        0.37071740056438        1.43813834366417
C            9.34557225511070        0.68084139587599        2.04762414872738
C            7.48377491673015       -0.91374566947691        1.51592494104327
C            6.25965430916875       -1.21897444335856        0.95828990858606
C            4.06466773715934       -1.79052735925125       -0.86837571794905
C            2.82876675595005       -2.42522076298541       -0.74884837178566
C            2.61595214059051       -3.65470441951336       -1.33904532452322
C            3.62120775736556       -4.29413627059206       -2.05446046730479
C            3.39139952156578       -5.64155508621225       -2.66947801993334
C            4.85250564670484       -3.65950354746532       -2.16526845457658
C            5.07556615025894       -2.42529640950016       -1.58868931100435
C            2.37059438151717        0.53420479178522       -1.31945869063203
C            1.34410290925543        1.45255068195069       -1.27086701719032
C           -0.06765660505927        4.08844347905856       -1.44057012965810
C            1.11369425064091        5.05235996103343       -1.48024901973234
C            1.02562559049694        6.02490221147752       -0.31084823764246
C            1.03322410308686        5.24628554648719        0.99869627675190
C           -0.08290901395974        4.20235394791630        1.02801407321239
C           -2.30938768471750        2.30142684951077       -0.95684822225888
C           -3.35702024670028        1.40813146721306       -0.83078589592320
C           -5.06728313490411       -2.41024810953786        1.59037466074560
C           -4.79863907470597       -3.69389228573144        2.02130509899800
H           -2.27549336314866       -5.91455858445061        2.21242375401160
H           -3.81706194870707       -5.93491140250248        3.08277269456488
H           -3.74242513014969       -6.46047484417850        1.40253795592768
H           -1.80731706640907       -4.15475960896978        0.54660894706119
H           -2.27898384103487       -1.88257160904289       -0.24307217640693
H           -6.24887443296316       -1.95577656645498       -0.86023313959351
H           -8.54097632616052       -1.29344655382686       -1.43150823607684
H          -10.47263318711014        0.44732657158305       -0.51324540821147
H           -9.91761848740589        0.97190406247086       -2.09860173601948
H           -9.95349558144604        2.11941431791029       -0.75445034248249
H           -7.82965483164182        2.58749599517252        0.18567967912854
H           -5.54443712555151        1.92627117106273        0.77667069818610
H           -2.33315085857484       -0.21668192791399        1.94283913430450
H           -0.47328770347979        1.34002316967086        1.69156024013763
H            1.91521110049271        2.72575069626649        1.79454120833615
H            3.72206938072334        1.11967591440516        1.71423984851318
H            5.49603941762619        1.81645701494163       -0.31288040802221
H            7.66426058646429        2.34828035752236        0.69843613386719
H           10.13839429134453        0.16457229237243        1.50601532081880
H            9.38017392315062        0.34700790522755        3.08370306058873
H            9.54817088952151        1.74849442781854        2.01762461337589
H            8.03874524312749       -1.68482062821962        2.03146079308914
H            5.86023266958354       -2.21944175342592        1.03885154007618
H            2.03701465570860       -1.94731008049492       -0.19034659585090
H            1.65087700036480       -4.13043453895932       -1.23613369259778
H            2.34804202182574       -5.76679763098472       -2.95023568257937
H            3.64480466456904       -6.42743396203481       -1.95647695120044
H            4.01311816739237       -5.77600181338824       -3.55180222189615
H            5.64797143041151       -4.13462785559554       -2.72183741627082
H            6.03542857105715       -1.94146015297384       -1.69609510682651
H            2.49089867537367       -0.09727622178516       -2.18765137166679
H            0.66260527419074        1.50314905816958       -2.10665547035542
H           -0.98795112799590        4.67682935869219       -1.45033391865096
H           -0.05790910065060        3.46131275472305       -2.33185435364137
H            1.10644378714871        5.60045689394914       -2.42521695285690
H            2.04851267936024        4.49003126156035       -1.42356539240125
H            1.86452136565185        6.72372847588342       -0.33340318785907
H            0.10325954235428        6.60578516400976       -0.39084521982094
H            0.90352579059619        5.92966943535577        1.84169673424604
H            2.00520124064492        4.76381434999778        1.10650112741379
H           -1.04645843410802        4.71888235480422        0.99114922547695
H           -0.05488701155234        3.65228124716311        1.96961577946315
H           -2.33243600478479        2.99170344363011       -1.78486811362027
H           -4.16188672456399        1.41970913447956       -1.55142149388070
H           -5.97951075064076       -1.91631566108900        1.89174128356349
H           -5.51075892206004       -4.19710006832292        2.66000410163348
