  54
  -81.0012074043000       0.390480376523992      !
 C          5.3288040804       -1.1936652998       -0.2156982933
 C          4.8218681590       -0.3436604440        0.7531061460
 C          3.5380505586        0.1538115102        0.6479017054
 C          2.7336938073       -0.1896221075       -0.4397754849
 N          1.4332376849        0.3047073663       -0.5501694530
 C          0.4503495772       -0.4312810268       -1.2324778517
 C          0.3373188522       -1.8079495156       -1.0479535994
 C         -0.6552242726       -2.5130688120       -1.6980877096
 C         -1.5463186279       -1.8623950799       -2.5360368216
 C         -1.4306423005       -0.4973182728       -2.7302948616
 C         -0.4366157688        0.2163868214       -2.0885848845
 C          1.1129985482        1.5735837459       -0.0587698947
 C          2.0052566652        2.6350132763       -0.2142500810
 C          1.6928266068        3.9023084945        0.2352073334
 C          0.4723552729        4.1439064082        0.8459222809
 C         -0.4212297190        3.1031692036        1.0173954829
 C         -0.1137834345        1.8194177117        0.5846042832
 N         -1.0465061557        0.7887652425        0.7876300566
 C         -2.3143321412        0.7457219073        0.2474033057
 C         -2.9777875685        1.6946887725       -0.5154048773
 C         -4.2457157248        1.3847533258       -0.9675776362
 C         -4.8433637455        0.1613641545       -0.6723123312
 C         -4.1846352113       -0.7880710415        0.0829570336
 C         -2.9092347263       -0.5001745415        0.5491708775
 C         -1.9455012903       -1.2357348349        1.3175528176
 C         -1.9416464341       -2.4963764887        1.8981588589
 C         -0.8173872513       -2.9039380601        2.5889169233
 C          0.2878128295       -2.0658635391        2.7196925519
 C          0.3063523036       -0.8055970785        2.1542340979
 C         -0.8094615693       -0.4031202607        1.4364090860
 C          3.2553563655       -1.0363095034       -1.4184866293
 C          4.5380493804       -1.5341162360       -1.3008260148
 H          6.3310478532       -1.5840374483       -0.1275106726
 H          5.4285494221       -0.0703921306        1.6039772101
 H          3.1555998525        0.8163427935        1.4101667141
 H          1.0182033458       -2.3124488515       -0.3792805694
 H         -0.7415672211       -3.5774277413       -1.5380265825
 H         -2.3270515315       -2.4163719879       -3.0338702777
 H         -2.1191023019        0.0177978150       -3.3831299209
 H         -0.3460650673        1.2823352646       -2.2410343105
 H          2.9464175762        2.4516317110       -0.7110345665
 H          2.3987049077        4.7069513584        0.0960670833
 H          0.2216641932        5.1342132197        1.1930627418
 H         -1.3685550162        3.2683601056        1.5090273877
 H         -2.5155787125        2.6404927908       -0.7562089254
 H         -4.7845074544        2.1046576409       -1.5660505909
 H         -5.8352289942       -0.0442154886       -1.0465545270
 H         -4.6457814081       -1.7389328500        0.3037215376
 H         -2.8023529910       -3.1420928004        1.8097343055
 H         -0.7925780293       -3.8832430600        3.0435908261
 H          1.1482763975       -2.4079843902        3.2762626070
 H          1.1612466978       -0.1584270423        2.2702371494
 H          2.6503319905       -1.2957510109       -2.2741846175
 H          4.9258993030       -2.1872066002       -2.0688061848
  54
  -81.0011473917000       0.366453886486491      !
 C         -1.3314493452       -2.4331052811       -2.1189162188
 C         -0.3206694362       -2.8451847843       -1.2651656053
 C          0.5941620239       -1.9362878118       -0.7738344024
 C          0.5083747592       -0.5928720207       -1.1360546948
 N          1.4111776458        0.3447447337       -0.6108567623
 C          2.7649110680        0.0186800796       -0.4908362458
 C          3.3653746148       -0.8546787480       -1.3978833353
 C          4.7014422309       -1.1814265386       -1.2731474930
 C          5.4656628672       -0.6406440579       -0.2522501706
 C          4.8779516818        0.2343005673        0.6463107186
 C          3.5410674080        0.5618933918        0.5336012575
 C          0.9695646660        1.6293368994       -0.2839999961
 C          1.7596592472        2.7373388161       -0.5959184039
 C          1.3441767654        4.0201962083       -0.3031783849
 C          0.1175737002        4.2325045111        0.3060884941
 C         -0.6775777550        3.1489015289        0.6271138502
 C         -0.2671201444        1.8502833308        0.3498222045
 N         -1.1173233015        0.7866869498        0.6939898420
 C         -2.3923391223        0.6044192870        0.2003898219
 C         -3.1331524368        1.4162319681       -0.6453954342
 C         -4.3904206145        0.9813994764       -1.0173945703
 C         -4.9025966384       -0.2325339738       -0.5646166360
 C         -4.1656068075       -1.0476098103        0.2711068529
 C         -2.8992244874       -0.6322338788        0.6594391443
 C         -1.8723025096       -1.2147156863        1.4755908189
 C         -1.7746381699       -2.3986918185        2.1930860916
 C         -0.6125369431       -2.6542910575        2.8935993434
 C          0.4377944208       -1.7390434778        2.8995384727
 C          0.3635075584       -0.5530498502        2.1952340241
 C         -0.7898933919       -0.3056618664        1.4665545686
 C         -0.4952473720       -0.1868534004       -2.0118155255
 C         -1.4116915043       -1.1030129351       -2.4921334526
 H         -2.0528908330       -3.1447523653       -2.4897532886
 H         -0.2526855327       -3.8806250480       -0.9664987157
 H          1.3672086618       -2.2543693075       -0.0908479203
 H          2.7781109512       -1.2701410737       -2.2030565062
 H          5.1513474434       -1.8569965713       -1.9856962796
 H          6.5101677594       -0.8955695737       -0.1598991989
 H          5.4636927008        0.6620965674        1.4466651423
 H          3.0942609206        1.2472384131        1.2386548931
 H          2.7061069163        2.5744208152       -1.0896655991
 H          1.9742571314        4.8573973448       -0.5622178116
 H         -0.2140517910        5.2334027802        0.5344975020
 H         -1.6284528713        3.2931791759        1.1184178856
 H         -2.7380888064        2.3531405896       -1.0091609208
 H         -4.9884090629        1.5941533009       -1.6760601505
 H         -5.8898652271       -0.5374884253       -0.8784838610
 H         -4.5604814550       -1.9918795737        0.6144396568
 H         -2.5935710558       -3.1021204324        2.2017880153
 H         -0.5149559792       -3.5719732070        3.4545064653
 H          1.3291392920       -1.9609795446        3.4681839929
 H          1.1772084049        0.1546927479        2.2137776312
 H         -0.5567071949        0.8506228379       -2.3073190418
 H         -2.1943706723       -0.7729477416       -3.1587760454
  54
  -81.0007594284000       0.243065736989517      !
 C          5.4433328611       -0.9988487142       -0.2845105987
 C          4.8849382006       -0.2354359254        0.7273738587
 C          3.5729793632        0.1874615148        0.6427762159
 C          2.7943427641       -0.1460444321       -0.4657624092
 N          1.4652855142        0.2819777751       -0.5583890652
 C          0.5103680642       -0.5344383115       -1.1805698840
 C          0.5352840202       -1.9162097495       -0.9944349435
 C         -0.4345589907       -2.7103244989       -1.5709970886
 C         -1.4415421831       -2.1446526205       -2.3369619926
 C         -1.4593225081       -0.7758946407       -2.5397935372
 C         -0.4860220980        0.0267668525       -1.9753279431
 C          1.1152966788        1.5452430183       -0.0757215898
 C          2.0003809479        2.6130493816       -0.2422239658
 C          1.6978217069        3.8779266745        0.2173490304
 C          0.4915353945        4.1141841149        0.8577712538
 C         -0.3986420165        3.0722877960        1.0314310650
 C         -0.1056451307        1.7902904757        0.5791035893
 N         -1.0655527411        0.7825217627        0.7665131458
 C         -2.3484876779        0.8250069315        0.2600791857
 C         -2.9794596662        1.8314680021       -0.4559112366
 C         -4.2769414341        1.6084753372       -0.8742405654
 C         -4.9350171729        0.4128668435       -0.5940184592
 C         -4.3067299682       -0.5966784486        0.1074832666
 C         -3.0023567977       -0.3961661010        0.5386442996
 C         -2.0584958405       -1.2083052779        1.2522557199
 C         -2.1083855680       -2.4887814692        1.7850640151
 C         -0.9926646354       -2.9798110634        2.4331993712
 C          0.1563908221       -2.2041373336        2.5701967054
 C          0.2297129091       -0.9265201410        2.0502518527
 C         -0.8772388427       -0.4407782020        1.3708074118
 C          3.3643143089       -0.9097039237       -1.4840490245
 C          4.6756803345       -1.3327687392       -1.3881306178
 H          6.4689943919       -1.3270725810       -0.2151786201
 H          5.4737924531        0.0298777198        1.5931130600
 H          3.1478746601        0.7864201931        1.4348020910
 H          1.3044308192       -2.3559013545       -0.3778220946
 H         -0.4135326563       -3.7773494027       -1.4064865390
 H         -2.2074114386       -2.7677444814       -2.7725981645
 H         -2.2376612107       -0.3263047501       -3.1382730933
 H         -0.4989467690        1.0945245946       -2.1399201502
 H          2.9329581827        2.4337483791       -0.7562580602
 H          2.4004639668        4.6832033705        0.0665784435
 H          0.2489485008        5.0999383634        1.2229580919
 H         -1.3366074534        3.2333041019        1.5419138272
 H         -2.4719256587        2.7560501496       -0.6877262214
 H         -4.7908800080        2.3758225626       -1.4345554567
 H         -5.9494011764        0.2768702788       -0.9385937996
 H         -4.8142161194       -1.5267733494        0.3145478434
 H         -3.0039561965       -3.0846568089        1.6931389125
 H         -1.0089271950       -3.9762696545        2.8492857430
 H          1.0092748581       -2.6113258458        3.0936138885
 H          1.1212122099       -0.3308464837        2.1682654260
 H          2.7732628751       -1.1620408154       -2.3517508734
 H          5.1050064512       -1.9177487382       -2.1880767714
