  54
  -81.3431442800000       0.156115632692814      !
 C          5.3288040804       -1.1936652998       -0.2156982933
 C          4.8218681590       -0.3436604440        0.7531061460
 C          3.5380505586        0.1538115102        0.6479017054
 C          2.7336938073       -0.1896221075       -0.4397754849
 N          1.4332376849        0.3047073663       -0.5501694530
 C          0.4503495772       -0.4312810268       -1.2324778517
 C          0.3373188522       -1.8079495156       -1.0479535994
 C         -0.6552242726       -2.5130688120       -1.6980877096
 C         -1.5463186279       -1.8623950799       -2.5360368216
 C         -1.4306423005       -0.4973182728       -2.7302948616
 C         -0.4366157688        0.2163868214       -2.0885848845
 C          1.1129985482        1.5735837459       -0.0587698947
 C          2.0052566652        2.6350132763       -0.2142500810
 C          1.6928266068        3.9023084945        0.2352073334
 C          0.4723552729        4.1439064082        0.8459222809
 C         -0.4212297190        3.1031692036        1.0173954829
 C         -0.1137834345        1.8194177117        0.5846042832
 N         -1.0465061557        0.7887652425        0.7876300566
 C         -2.3143321412        0.7457219073        0.2474033057
 C         -2.9777875685        1.6946887725       -0.5154048773
 C         -4.2457157248        1.3847533258       -0.9675776362
 C         -4.8433637455        0.1613641545       -0.6723123312
 C         -4.1846352113       -0.7880710415        0.0829570336
 C         -2.9092347263       -0.5001745415        0.5491708775
 C         -1.9455012903       -1.2357348349        1.3175528176
 C         -1.9416464341       -2.4963764887        1.8981588589
 C         -0.8173872513       -2.9039380601        2.5889169233
 C          0.2878128295       -2.0658635391        2.7196925519
 C          0.3063523036       -0.8055970785        2.1542340979
 C         -0.8094615693       -0.4031202607        1.4364090860
 C          3.2553563655       -1.0363095034       -1.4184866293
 C          4.5380493804       -1.5341162360       -1.3008260148
 H          6.3310478532       -1.5840374483       -0.1275106726
 H          5.4285494221       -0.0703921306        1.6039772101
 H          3.1555998525        0.8163427935        1.4101667141
 H          1.0182033458       -2.3124488515       -0.3792805694
 H         -0.7415672211       -3.5774277413       -1.5380265825
 H         -2.3270515315       -2.4163719879       -3.0338702777
 H         -2.1191023019        0.0177978150       -3.3831299209
 H         -0.3460650673        1.2823352646       -2.2410343105
 H          2.9464175762        2.4516317110       -0.7110345665
 H          2.3987049077        4.7069513584        0.0960670833
 H          0.2216641932        5.1342132197        1.1930627418
 H         -1.3685550162        3.2683601056        1.5090273877
 H         -2.5155787125        2.6404927908       -0.7562089254
 H         -4.7845074544        2.1046576409       -1.5660505909
 H         -5.8352289942       -0.0442154886       -1.0465545270
 H         -4.6457814081       -1.7389328500        0.3037215376
 H         -2.8023529910       -3.1420928004        1.8097343055
 H         -0.7925780293       -3.8832430600        3.0435908261
 H          1.1482763975       -2.4079843902        3.2762626070
 H          1.1612466978       -0.1584270423        2.2702371494
 H          2.6503319905       -1.2957510109       -2.2741846175
 H          4.9258993030       -2.1872066002       -2.0688061848
  54
  -81.3431414900000       0.155655402296542      !
 C         -1.6565124367       -1.6153831524       -2.6278242949
 C         -1.5123497630       -0.2410959269       -2.7037817756
 C         -0.4802602498        0.3898380459       -2.0356905042
 C          0.4168979866       -0.3515803053       -1.2709470870
 N          1.4375859378        0.2972258628       -0.5573613116
 C          2.7243622041       -0.2434053763       -0.5216007322
 C          3.5572374350       -0.0314221427        0.5779909939
 C          4.8267575879       -0.5740784231        0.6086605934
 C          5.2907262170       -1.3388115370       -0.4487853701
 C          4.4712885528       -1.5488498854       -1.5456611366
 C          3.2025736057       -1.0050240833       -1.5884155592
 C          1.1719451356        1.5272829914        0.0510362742
 C          2.1014906226        2.5649732652       -0.0304303154
 C          1.8493358329        3.7972289584        0.5378402256
 C          0.6525684127        4.0281365390        1.1976273192
 C         -0.2776515896        3.0105302874        1.2959911590
 C         -0.0311036881        1.7602104275        0.7424652350
 N         -1.0026551927        0.7543386966        0.8738276847
 C         -2.2851126691        0.8179753820        0.3709276421
 C         -2.9249130111        1.8631692099       -0.2779937610
 C         -4.2180725198        1.6533453454       -0.7163580714
 C         -4.8634421630        0.4346554004       -0.5184891928
 C         -4.2281378336       -0.6106589653        0.1214478439
 C         -2.9282426527       -0.4243833794        0.5714313221
 C         -1.9792393154       -1.2711078304        1.2367139890
 C         -2.0176392213       -2.5809937628        1.6938219549
 C         -0.8958858824       -3.1008766473        2.3087980611
 C          0.2485545132       -2.3267024634        2.4873072681
 C          0.3097902742       -1.0197930778        2.0441924286
 C         -0.8038185718       -0.5032867845        1.3998398062
 C          0.2761173634       -1.7367859281       -1.2076695982
 C         -0.7541935423       -2.3586302572       -1.8836763608
 H         -2.4681359923       -2.1046834427       -3.1441002488
 H         -2.2090959259        0.3461536420       -3.2829868303
 H         -0.3679384028        1.4628053673       -2.0959766638
 H          3.2086647421        0.5651701325        1.4080108936
 H          5.4562844192       -0.4027376532        1.4695471379
 H          6.2823061260       -1.7635813228       -0.4197982218
 H          4.8260284340       -2.1341184303       -2.3812703429
 H          2.5744551114       -1.1624981914       -2.4523076805
 H          3.0243736430        2.3920259415       -0.5638541888
 H          2.5834201736        4.5840401811        0.4535835299
 H          0.4485551167        4.9914242248        1.6385723646
 H         -1.2071249729        3.1658791563        1.8235333172
 H         -2.4264344183        2.8066438149       -0.4441333852
 H         -4.7398150498        2.4504442804       -1.2255459100
 H         -5.8745091566        0.3097706869       -0.8767290977
 H         -4.7268080248       -1.5569640794        0.2672446005
 H         -2.9085633178       -3.1779357222        1.5696111173
 H         -0.9037458172       -4.1197466709        2.6666821629
 H          1.1060249480       -2.7567975941        2.9842038389
 H          1.1953323865       -0.4234823123        2.1972873013
 H          0.9647173041       -2.3144853052       -0.6099076744
 H         -0.8622877980       -3.4308199543       -1.8156242226
  54
  -81.3431382300000       0.155119360619086      !
 C          3.8077190516        0.9665350885       -3.7894175228
 C          3.6901268053       -0.3231446780       -3.2978991418
 C          2.9398561268       -0.5775312451       -2.1667954325
 C          2.2806984319        0.4609227406       -1.5079008817
 N          1.5070441578        0.2021653060       -0.3752796139
 C          0.8771869429       -1.0434420127       -0.2183748634
 C          0.8690600282       -1.6691985744        1.0257171451
 C          0.2157841802       -2.8752234496        1.1939677082
 C         -0.4261423349       -3.4764561926        0.1256818025
 C         -0.4055636707       -2.8654556086       -1.1178516132
 C          0.2389277640       -1.6577216685       -1.2943130706
 C          1.4100896287        1.1485237399        0.6488875304
 C          2.5321433265        1.8812161585        1.0376095538
 C          2.4655885941        2.7960813815        2.0691055231
 C          1.2735030519        2.9960907810        2.7471438386
 C          0.1483181069        2.2870029219        2.3702632510
 C          0.1961061518        1.3755907059        1.3229458238
 N         -0.9738437915        0.6865749331        0.9629780887
 C         -1.5347896160        0.6479700881       -0.2947905053
 C         -1.1987583582        1.3715682306       -1.4285176461
 C         -1.9319836264        1.1457893415       -2.5772263973
 C         -2.9847348552        0.2335932261       -2.5986204862
 C         -3.3416358057       -0.4676649618       -1.4637771516
 C         -2.6172997084       -0.2607838720       -0.2980872704
 C         -2.7012398287       -0.7966680324        1.0308092171
 C         -3.5249927767       -1.7369342588        1.6342575101
 C         -3.3111948915       -2.0493590662        2.9618826250
 C         -2.2902884554       -1.4391232240        3.6872766254
 C         -1.4577682316       -0.5004303145        3.1094088504
 C         -1.6711391921       -0.1808202451        1.7771658350
 C          2.4109046159        1.7590556580       -2.0033651234
 C          3.1681204291        2.0041798061       -3.1319570387
 H          4.3949236298        1.1616170445       -4.6735326782
 H          4.1943698761       -1.1390662216       -3.7944818053
 H          2.8632951243       -1.5836635251       -1.7827897439
 H          1.3710998256       -1.2006722233        1.8600308614
 H          0.2064085766       -3.3445459138        2.1663339775
 H         -0.9411800531       -4.4150202906        0.2612919905
 H         -0.9088213256       -3.3253717290       -1.9552285661
 H          0.2356869741       -1.1720885431       -2.2584103866
 H          3.4664434465        1.7079949849        0.5245152977
 H          3.3504789336        3.3448107958        2.3536555410
 H          1.2187604295        3.7051372793        3.5584904761
 H         -0.7942041295        2.4452472656        2.8732481899
 H         -0.3927594200        2.0880953793       -1.4170251333
 H         -1.6843083502        1.6892629864       -3.4774369285
 H         -3.5325494372        0.0829603535       -3.5170398047
 H         -4.1676220627       -1.1627659955       -1.4785786955
 H         -4.3110144320       -2.2166276067        1.0710651168
 H         -3.9390999683       -2.7803182434        3.4492054593
 H         -2.1445347198       -1.7089356494        4.7230852416
 H         -0.6605395352       -0.0397085071        3.6737548588
 H          1.9195099324        2.5778635272       -1.4991159923
 H          3.2536253879        3.0146400065       -3.5041269674
  54
  -81.3430647800000       0.143519437355936      !
 C         -1.3314493452       -2.4331052811       -2.1189162188
 C         -0.3206694362       -2.8451847843       -1.2651656053
 C          0.5941620239       -1.9362878118       -0.7738344024
 C          0.5083747592       -0.5928720207       -1.1360546948
 N          1.4111776458        0.3447447337       -0.6108567623
 C          2.7649110680        0.0186800796       -0.4908362458
 C          3.3653746148       -0.8546787480       -1.3978833353
 C          4.7014422309       -1.1814265386       -1.2731474930
 C          5.4656628672       -0.6406440579       -0.2522501706
 C          4.8779516818        0.2343005673        0.6463107186
 C          3.5410674080        0.5618933918        0.5336012575
 C          0.9695646660        1.6293368994       -0.2839999961
 C          1.7596592472        2.7373388161       -0.5959184039
 C          1.3441767654        4.0201962083       -0.3031783849
 C          0.1175737002        4.2325045111        0.3060884941
 C         -0.6775777550        3.1489015289        0.6271138502
 C         -0.2671201444        1.8502833308        0.3498222045
 N         -1.1173233015        0.7866869498        0.6939898420
 C         -2.3923391223        0.6044192870        0.2003898219
 C         -3.1331524368        1.4162319681       -0.6453954342
 C         -4.3904206145        0.9813994764       -1.0173945703
 C         -4.9025966384       -0.2325339738       -0.5646166360
 C         -4.1656068075       -1.0476098103        0.2711068529
 C         -2.8992244874       -0.6322338788        0.6594391443
 C         -1.8723025096       -1.2147156863        1.4755908189
 C         -1.7746381699       -2.3986918185        2.1930860916
 C         -0.6125369431       -2.6542910575        2.8935993434
 C          0.4377944208       -1.7390434778        2.8995384727
 C          0.3635075584       -0.5530498502        2.1952340241
 C         -0.7898933919       -0.3056618664        1.4665545686
 C         -0.4952473720       -0.1868534004       -2.0118155255
 C         -1.4116915043       -1.1030129351       -2.4921334526
 H         -2.0528908330       -3.1447523653       -2.4897532886
 H         -0.2526855327       -3.8806250480       -0.9664987157
 H          1.3672086618       -2.2543693075       -0.0908479203
 H          2.7781109512       -1.2701410737       -2.2030565062
 H          5.1513474434       -1.8569965713       -1.9856962796
 H          6.5101677594       -0.8955695737       -0.1598991989
 H          5.4636927008        0.6620965674        1.4466651423
 H          3.0942609206        1.2472384131        1.2386548931
 H          2.7061069163        2.5744208152       -1.0896655991
 H          1.9742571314        4.8573973448       -0.5622178116
 H         -0.2140517910        5.2334027802        0.5344975020
 H         -1.6284528713        3.2931791759        1.1184178856
 H         -2.7380888064        2.3531405896       -1.0091609208
 H         -4.9884090629        1.5941533009       -1.6760601505
 H         -5.8898652271       -0.5374884253       -0.8784838610
 H         -4.5604814550       -1.9918795737        0.6144396568
 H         -2.5935710558       -3.1021204324        2.2017880153
 H         -0.5149559792       -3.5719732070        3.4545064653
 H          1.3291392920       -1.9609795446        3.4681839929
 H          1.1772084049        0.1546927479        2.2137776312
 H         -0.5567071949        0.8506228379       -2.3073190418
 H         -2.1943706723       -0.7729477416       -3.1587760454
  54
  -81.3430560200000       0.142195189996286      !
 C          1.4959048172       -3.0906959218        0.6312056449
 C          2.1082844947       -1.9414630194        1.0992843168
 C          1.8905033926       -0.7295679425        0.4718349033
 C          1.0399464923       -0.6528122349       -0.6280854465
 N          0.7805455196        0.5849816785       -1.2367804285
 C          0.7152866267        0.6780325863       -2.6298384467
 C         -0.1168126793        1.6151892918       -3.2433255720
 C         -0.1747956014        1.7029546896       -4.6203493742
 C          0.5873493477        0.8593246229       -5.4112585966
 C          1.4159445738       -0.0728497583       -4.8086703521
 C          1.4860677104       -0.1633111114       -3.4322639416
 C          0.6705021973        1.7366828940       -0.4535529842
 C          1.2553026371        2.9293869754       -0.8833967244
 C          1.1799214606        4.0796633719       -0.1250062401
 C          0.5201649248        4.0676765389        1.0937821441
 C         -0.0688662364        2.8982563580        1.5354025945
 C         -0.0115262445        1.7348605792        0.7771351675
 N         -0.6232574560        0.5736593579        1.2771946684
 C         -1.5610059010       -0.2012381487        0.6311212710
 C         -2.2259603123        0.0357001416       -0.5623076796
 C         -3.1365082403       -0.9106848040       -0.9905147054
 C         -3.3931760393       -2.0603467279       -0.2467864548
 C         -2.7545002157       -2.2864248622        0.9563182099
 C         -1.8332636611       -1.3512286954        1.4066726367
 C         -1.0087019348       -1.2566406237        2.5776700960
 C         -0.8134941799       -2.0758950729        3.6812048012
 C          0.0987793609       -1.6869740532        4.6415909364
 C          0.8161913523       -0.4999073946        4.5106677928
 C          0.6397177003        0.3318688201        3.4220172959
 C         -0.2810605908       -0.0511636946        2.4583415317
 C          0.4362707105       -1.8152519156       -1.1050794062
 C          0.6669494326       -3.0223288282       -0.4771914855
 H          1.6628951280       -4.0345392255        1.1271548360
 H          2.7586791191       -1.9854350945        1.9601045009
 H          2.3724600920        0.1663160291        0.8359464483
 H         -0.7127046826        2.2809998129       -2.6365911332
 H         -0.8268800793        2.4319116194       -5.0789138296
 H          0.5367143863        0.9285393569       -6.4870514791
 H          2.0211040478       -0.7304346244       -5.4152810572
 H          2.1438189820       -0.8831175532       -2.9685800959
 H          1.7875652463        2.9344976215       -1.8229520157
 H          1.6471264097        4.9851994880       -0.4810581334
 H          0.4594519677        4.9634026434        1.6920010839
 H         -0.6029950166        2.8739260778        2.4737280533
 H         -2.0401448476        0.9275613554       -1.1397783998
 H         -3.6616192994       -0.7554540962       -1.9218544494
 H         -4.1104380294       -2.7780539981       -0.6167215480
 H         -2.9658080906       -3.1704597625        1.5388953293
 H         -1.3614822024       -3.0008467411        3.7792480418
 H          0.2667556178       -2.3111560128        5.5067412964
 H          1.5284192463       -0.2261329027        5.2753410473
 H          1.2077968173        1.2446931750        3.3211475201
 H         -0.2283697787       -1.7592267937       -1.9537775274
 H          0.1810265400       -3.9134193478       -0.8456173575
  54
  -81.3430491800000       0.141169689503832      !
 C          3.9579801724        1.0040273672       -3.7047872547
 C          3.8210456409       -0.2922014472       -3.2359875632
 C          3.0196202647       -0.5622358893       -2.1440894897
 C          2.3293643876        0.4671093237       -1.5036343894
 N          1.5129210827        0.1948378982       -0.4023691482
 C          0.8508289673       -1.0393308636       -0.3095186106
 C          0.7673999743       -1.7010483274        0.9128139462
 C          0.0748910585       -2.8928052833        1.0125616513
 C         -0.5283097784       -3.4460188636       -0.1031914578
 C         -0.4279002873       -2.8022399776       -1.3262825632
 C          0.2543670504       -1.6075353334       -1.4340976332
 C          1.4184210891        1.1168525741        0.6430129734
 C          2.5490162866        1.8303246563        1.0457697661
 C          2.4936883445        2.7359397031        2.0853427895
 C          1.3018376432        2.9493798803        2.7596932010
 C          0.1704209916        2.2559399501        2.3742979439
 C          0.2077197603        1.3496327531        1.3211945140
 N         -0.9716483764        0.6691152674        0.9767946015
 C         -1.5550263828        0.6200957411       -0.2699610242
 C         -1.2260455383        1.3170859487       -1.4226156294
 C         -1.9855152232        1.0860939295       -2.5530662761
 C         -3.0558208291        0.1943996372       -2.5393781987
 C         -3.4047861179       -0.4802338521       -1.3862700055
 C         -2.6552513836       -0.2668579160       -0.2379185137
 C         -2.7275523195       -0.7768639327        1.1017220215
 C         -3.5615258053       -1.6866561487        1.7372570821
 C         -3.3321741000       -1.9784684220        3.0669860158
 C         -2.2838548067       -1.3797787246        3.7623785304
 C         -1.4406481031       -0.4715853069        3.1521562967
 C         -1.6720644513       -0.1694769209        1.8186045502
 C          2.4725506608        1.7706453982       -1.9803775263
 C          3.2818406416        2.0318213346       -3.0685724855
 H          4.5879383663        1.2118085932       -4.5559176062
 H          4.3509259150       -1.1003923211       -3.7181846748
 H          2.9272914415       -1.5728902364       -1.7755420470
 H          1.2409090734       -1.2720007994        1.7840822160
 H          0.0042269261       -3.3884461340        1.9692296532
 H         -1.0744897661       -4.3730046155       -0.0206776831
 H         -0.8986443672       -3.2252414044       -2.2012130400
 H          0.3124558609       -1.0954034699       -2.3825557939
 H          3.4830503913        1.6493277629        0.5350287179
 H          3.3862469371        3.2676499576        2.3780457547
 H          1.2528914635        3.6542832873        3.5749664642
 H         -0.7714114870        2.4212935588        2.8762615814
 H         -0.4048902353        2.0163275238       -1.4395846546
 H         -1.7451890858        1.6093751706       -3.4671546693
 H         -3.6234443795        0.0385128377       -3.4448597703
 H         -4.2435172704       -1.1598675734       -1.3735420834
 H         -4.3690434666       -2.1578285619        1.1974497420
 H         -3.9693426515       -2.6837635258        3.5796432130
 H         -2.1256138929       -1.6335424115        4.8003800507
 H         -0.6228310581       -0.0201936096        3.6940192290
 H          1.9518581645        2.5804434398       -1.4910190028
 H          3.3804109409        3.0464982163       -3.4255202343
  54
  -81.3427804200000       0.106225287535504      !
 C          5.4433328611       -0.9988487142       -0.2845105987
 C          4.8849382006       -0.2354359254        0.7273738587
 C          3.5729793632        0.1874615148        0.6427762159
 C          2.7943427641       -0.1460444321       -0.4657624092
 N          1.4652855142        0.2819777751       -0.5583890652
 C          0.5103680642       -0.5344383115       -1.1805698840
 C          0.5352840202       -1.9162097495       -0.9944349435
 C         -0.4345589907       -2.7103244989       -1.5709970886
 C         -1.4415421831       -2.1446526205       -2.3369619926
 C         -1.4593225081       -0.7758946407       -2.5397935372
 C         -0.4860220980        0.0267668525       -1.9753279431
 C          1.1152966788        1.5452430183       -0.0757215898
 C          2.0003809479        2.6130493816       -0.2422239658
 C          1.6978217069        3.8779266745        0.2173490304
 C          0.4915353945        4.1141841149        0.8577712538
 C         -0.3986420165        3.0722877960        1.0314310650
 C         -0.1056451307        1.7902904757        0.5791035893
 N         -1.0655527411        0.7825217627        0.7665131458
 C         -2.3484876779        0.8250069315        0.2600791857
 C         -2.9794596662        1.8314680021       -0.4559112366
 C         -4.2769414341        1.6084753372       -0.8742405654
 C         -4.9350171729        0.4128668435       -0.5940184592
 C         -4.3067299682       -0.5966784486        0.1074832666
 C         -3.0023567977       -0.3961661010        0.5386442996
 C         -2.0584958405       -1.2083052779        1.2522557199
 C         -2.1083855680       -2.4887814692        1.7850640151
 C         -0.9926646354       -2.9798110634        2.4331993712
 C          0.1563908221       -2.2041373336        2.5701967054
 C          0.2297129091       -0.9265201410        2.0502518527
 C         -0.8772388427       -0.4407782020        1.3708074118
 C          3.3643143089       -0.9097039237       -1.4840490245
 C          4.6756803345       -1.3327687392       -1.3881306178
 H          6.4689943919       -1.3270725810       -0.2151786201
 H          5.4737924531        0.0298777198        1.5931130600
 H          3.1478746601        0.7864201931        1.4348020910
 H          1.3044308192       -2.3559013545       -0.3778220946
 H         -0.4135326563       -3.7773494027       -1.4064865390
 H         -2.2074114386       -2.7677444814       -2.7725981645
 H         -2.2376612107       -0.3263047501       -3.1382730933
 H         -0.4989467690        1.0945245946       -2.1399201502
 H          2.9329581827        2.4337483791       -0.7562580602
 H          2.4004639668        4.6832033705        0.0665784435
 H          0.2489485008        5.0999383634        1.2229580919
 H         -1.3366074534        3.2333041019        1.5419138272
 H         -2.4719256587        2.7560501496       -0.6877262214
 H         -4.7908800080        2.3758225626       -1.4345554567
 H         -5.9494011764        0.2768702788       -0.9385937996
 H         -4.8142161194       -1.5267733494        0.3145478434
 H         -3.0039561965       -3.0846568089        1.6931389125
 H         -1.0089271950       -3.9762696545        2.8492857430
 H          1.0092748581       -2.6113258458        3.0936138885
 H          1.1212122099       -0.3308464837        2.1682654260
 H          2.7732628751       -1.1620408154       -2.3517508734
 H          5.1050064512       -1.9177487382       -2.1880767714
