85
 energy: -134.593306226488 gnorm: 0.000035748448 xtb: 6.7.1 (edcfbbe)
O            7.44334696760091       -1.38910101405184       -2.05515945163870
P            7.02847316760511       -0.59866783443506       -0.88010212569345
C            7.69853503647565       -1.24894517034833        0.68571332130521
C            7.94332385510885       -0.45055010131381        1.79557601654104
C            8.44403472327359       -1.02090471133121        2.95279671081565
C            8.70003839278999       -2.38218566953538        3.00468207400476
C            8.46084456009477       -3.17857877413609        1.89589231096826
C            7.96049803815903       -2.61166867710688        0.73741517732363
C            7.57764089377106        1.13841979891249       -0.96207825316815
C            8.75757496251751        1.38646432152916       -1.65122151909040
C            9.25316975746565        2.67516847632054       -1.73765008290199
C            8.56764309386062        3.71872981607177       -1.13593636809613
C            7.38602122735367        3.47393904435030       -0.45420666877493
C            6.88803500402164        2.18569980467384       -0.36503562288190
C            5.22181191680137       -0.54202726523882       -0.66237458262318
C            4.44214097126005       -0.74612732737651       -1.79321099859724
C            3.06413765848123       -0.68828279294696       -1.70835698029534
C            2.44824726311655       -0.41939585582899       -0.48904150828050
C            0.97218128890632       -0.34301099097829       -0.39321368867892
C            0.21538432465696       -1.52094311787155       -0.34528752727839
C            0.82584638149647       -2.80292343620730       -0.37847059483315
C            0.07919807261088       -3.94011745408342       -0.34118012480804
C           -1.32704600736606       -3.86590844541736       -0.26932558826322
C           -1.95029582599632       -2.65678792565729       -0.22644432814081
C           -1.20953780966652       -1.44531093365949       -0.25151716019995
C           -1.83858367946898       -0.19387432317062       -0.20071375919609
C           -3.31376587124341       -0.11390357829899       -0.10324399923522
C           -3.96090420609368       -0.38116416433112        1.09964820709966
C           -5.33718297619622       -0.30423708498831        1.19360880861428
C           -6.08877714918070        0.04394579288448        0.07713389535114
N           -7.49125920260678        0.13004040446749        0.17235737610683
C           -8.40842541771393       -0.35839150035388       -0.73369201088460
C           -8.24723221662815       -1.12589211139100       -1.87810135136750
C           -9.40369229260944       -1.47743386645036       -2.55401790029232
C          -10.64758313263830       -1.06983111470701       -2.07156627684891
N          -10.82148849157408       -0.36523106536051       -0.96865516845178
C           -9.72339421315018       -0.02098778697166       -0.30959662496538
C           -9.57882082340387        0.70483245239389        0.91742190675881
C          -10.43736695591336        1.31127418363871        1.82250436370433
C           -9.86241624024085        1.93326197772545        2.91912192281274
C           -8.47723868724508        1.93001334073581        3.06692809933815
N           -7.63296681524981        1.36092124816502        2.22080406860891
C           -8.18388984785372        0.76277266404791        1.17643531649925
C           -5.45120130545578        0.32408731283167       -1.12689266854270
C           -4.07448334594779        0.24076818210430       -1.21313539467543
C           -1.08046275913970        0.98428211262619       -0.24515967108116
C           -1.68604980220033        2.26716799384280       -0.17584502304972
C           -0.93899889007141        3.40353203545378       -0.23026427119096
C            0.46326085954834        3.32870442433289       -0.35818178387678
C            1.08390931251082        2.11884824899733       -0.41325088040455
C            0.34368929362841        0.90847335420703       -0.34803933905433
C            3.23560225705111       -0.22494586399369        0.64330876639868
C            4.61360359744820       -0.28925127433140        0.56115832016356
H            7.75369033232135        0.61245731077023        1.74745784807555
H            8.63803655481441       -0.40113246469342        3.81613334835815
H            9.09238071445580       -2.82223956153512        3.90963946195691
H            8.66557516470117       -4.23857099908331        1.93360797399086
H            7.77634445620860       -3.20943215819178       -0.14497336270214
H            9.26875670009290        0.55698733121421       -2.12084132684038
H           10.17161186365283        2.86562246775482       -2.27335965465514
H            8.95272993079078        4.72562445550149       -1.20242110140131
H            6.84964117690778        4.28950107255045        0.00875132203122
H            5.96310134285602        1.99311976400814        0.15942423491668
H            4.93502851548411       -0.95751340153312       -2.73232860978643
H            2.45696573209753       -0.84769711068659       -2.58785407948888
H            1.90317955878859       -2.85900714028264       -0.43559545736033
H            0.55777062338281       -4.90837243229780       -0.36812620148105
H           -1.90406534056854       -4.77907239878304       -0.24889220682557
H           -3.02736881126477       -2.59971502618165       -0.17264639664057
H           -3.37733782305452       -0.65060892816015        1.96753721201196
H           -5.83674143719238       -0.50239433155115        2.12848538966074
H           -7.27512182335912       -1.44609394734501       -2.22188113668075
H           -9.34843013497432       -2.07272301187365       -3.45194120844973
H          -11.55535189162835       -1.33548522308915       -2.59672589584862
H          -11.50562914488337        1.29462333755946        1.66855364900693
H          -10.47614707477131        2.42127212730308        3.65959033913240
H           -8.01109101675347        2.41266951123648        3.91579302914406
H           -6.03133750068677        0.62522209331633       -1.98643230295180
H           -3.58030388253562        0.45941527342393       -2.14844783303068
H           -2.75980614231495        2.32485523543415       -0.07598058786616
H           -1.41448703043257        4.37215320443490       -0.17662179493585
H            1.03919997902853        4.24129801177843       -0.40972004154977
H            2.15794033690579        2.05971023355790       -0.51100927995271
H            2.75794603603740       -0.02623335555317        1.59202305791118
H            5.21819512314199       -0.15300569742193        1.44646624718269
