85
 energy: -134.593254814097 gnorm: 0.000141855489 xtb: 6.7.1 (edcfbbe)
O            7.53643728908847       -2.11205581171123        0.81646544558911
P            7.15555499435711       -0.78500623455157        0.29126250342438
C            7.74170593148173        0.58910497481626        1.33276307948666
C            7.10938445924288        1.82499045293930        1.37842213316871
C            7.62990750375753        2.83223590968424        2.17117743390831
C            8.77898236442465        2.61022904255449        2.91423164755083
C            9.40903978377814        1.37656863393703        2.87161013921882
C            8.89053154582667        0.36719582709414        2.08007126235789
C            7.82714394238241       -0.45451669526498       -1.36634381688649
C            8.51800241215937       -1.47694844925988       -2.00112216517597
C            9.05162746871635       -1.27288423542021       -3.26201363891456
C            8.89645206852212       -0.04518595444419       -3.88513653947056
C            8.21120172432883        0.97931372113257       -3.24864689897678
C            7.67675580982957        0.77893109511836       -1.98932079072773
C            5.34777649729842       -0.57672442459549        0.17771376165709
C            4.66331385571590       -0.57265684640229       -1.02846789093369
C            3.28257206451644       -0.48874541355063       -1.03588957171176
C            2.57098062602698       -0.41680798972244        0.15829832498694
C            1.09359798770391       -0.33337473334331        0.14296225421455
C            0.33133856571613       -1.44838825467650        0.51783406094021
C            0.93841663325678       -2.67564990582066        0.89594343637732
C            0.18884401636657       -3.74497036831341        1.27911699604949
C           -1.21716892747323       -3.65058663442094        1.31550788671882
C           -1.83816681955424       -2.49864234372466        0.94174099810981
C           -1.09630751252579       -1.36701369795274        0.51001114586352
C           -1.72538180665184       -0.18238959218239        0.09925912920542
C           -3.20150581397897       -0.10769911241135        0.06598657625936
C           -3.89279772840719        0.71169478355366        0.95453888327540
C           -5.27203234449583        0.78099278345184        0.92580980999098
C           -5.98423874223327        0.03278886183639       -0.00478907453346
N           -7.38983453223084        0.10900551246901       -0.04009267002374
C           -8.26795755477394       -0.94649311571259       -0.16495054463866
C           -8.05606346528520       -2.31726802097341       -0.19417771853548
C           -9.18327689953696       -3.11461675241323       -0.30203634558224
C          -10.44906290383979       -2.53168018991802       -0.36535707759903
N          -10.67136587997157       -1.23144223776976       -0.30855050206680
C           -9.60175274682614       -0.45429292365393       -0.20512517396085
C           -9.51037953943979        0.97148958137538       -0.09515297063583
C          -10.40863752515015        2.02831694392994       -0.07773197168835
C           -9.88091583896933        3.30379817295301        0.04339589614048
C           -8.50160248528033        3.47390754068225        0.13865465526471
N           -7.62027747847540        2.48620798461255        0.12551500332852
C           -8.12597699455852        1.26808155336158        0.01347459058918
C           -5.30325080354809       -0.77700985046330       -0.90782251966087
C           -3.92412208624627       -0.84979039495834       -0.86404559530837
C           -0.96184015107842        0.92967541187680       -0.28562609133607
C           -1.56511021520260        2.13520419349849       -0.73356098255826
C           -0.81249241865529        3.21378412108417       -1.08401839057561
C            0.59388931366366        3.15553840259352       -1.00811849646835
C            1.21210331559696        2.01124408078197       -0.60776777269411
C            0.46595206198482        0.85683080189187       -0.25013708326907
C            3.26545712813453       -0.43264090055753        1.36647463115624
C            4.64396838694366       -0.51445401814041        1.37451688338676
H            6.20581855366286        1.98913167531200        0.80832089549260
H            7.13673120999763        3.79248170422388        2.21213203727393
H            9.18154694027424        3.39951468891001        3.53190402138706
H           10.30140073975337        1.20135311143603        3.45458362475112
H            9.35696963927922       -0.60782630307363        2.03691923101001
H            8.62537005218939       -2.42427959501939       -1.49068821203852
H            9.58720722402870       -2.06984935857050       -3.75684939144582
H            9.31190780922750        0.11570763420941       -4.86906520348589
H            8.09432250884718        1.93583112787138       -3.73680670349610
H            7.14265116312208        1.57185807733339       -1.48668927029476
H            5.21150073077885       -0.63349997940827       -1.95845095906316
H            2.74555271801206       -0.48548287273349       -1.97361824551420
H            2.01600693183968       -2.74706276072736        0.87351489848472
H            0.66573302891106       -4.67165906130869        1.56391832736168
H           -1.79616101687968       -4.50242703572836        1.64161435202758
H           -2.91509973390815       -2.42738992391038        0.97267035628630
H           -3.34123815011727        1.29077545351241        1.68036901550416
H           -5.80489424149218        1.41838243068493        1.61324559538740
H           -7.06805736022975       -2.74665914050840       -0.12307296661981
H           -9.08835300445564       -4.18876017297793       -0.33107028283068
H          -11.33429794954548       -3.14710251400463       -0.45474338564701
H          -11.47076922819535        1.85340203139865       -0.15774766096862
H          -10.52681292612037        4.16719322998924        0.06390458488454
H           -8.07220562634291        4.46261522258328        0.23233880685527
H           -5.85165319739860       -1.33219964665725       -1.65405971876623
H           -3.39709597467701       -1.47608110958049       -1.56888857026225
H           -2.64208074733694        2.18277357110619       -0.79346083931218
H           -1.28751548838086        4.12364893809070       -1.42105827671335
H            1.17503141332775        4.02591547884536       -1.27624218313736
H            2.28962104652476        1.96341347886432       -0.55500373295062
H            2.71671400164377       -0.37894049429078        2.29580845582442
H            5.19342829891898       -0.53303420561012        2.30736321292775
