85
 energy: -134.524711599405 gnorm: 0.000064708291 xtb: 6.7.1 (edcfbbe)
O            7.64228861030179       -1.62869945360713        1.51652861427613
P            7.18902731668040       -0.58105718271938        0.57853812187608
C            7.68449649254648        1.09304261930366        1.09087026844408
C            7.23095092100902        2.22921391916824        0.43061469366520
C            7.62703705658841        3.47946525177066        0.86847683332223
C            8.46967774931636        3.59855506537443        1.96399049256428
C            8.91627520071256        2.46667589731039        2.62668123413362
C            8.52245715560536        1.21342314376425        2.19047780269053
C            7.83743307811550       -0.83234872701317       -1.10950168187287
C            7.39337264787648       -1.96470569530422       -1.78148305330547
C            7.88615142460373       -2.26278422695653       -3.03841797040218
C            8.82893991116613       -1.43086926125232       -3.62347505771822
C            9.28015372755061       -0.30783780720367       -2.94979408459764
C            8.78739901613358       -0.00637741619011       -1.69072887951172
C            5.38322475692146       -0.51510815881240        0.39741906498290
C            4.75170889234566       -0.05142165736465       -0.75292235850441
C            3.37633525616299        0.01340972335297       -0.80756899158273
C            2.58945278594243       -0.38932324866633        0.28056059482433
C            1.13508907701853       -0.32164186330636        0.21609676640624
C            0.35378714604956       -1.48860771827400        0.48322998978727
C            0.94633188918989       -2.73266447572139        0.72133642909410
C            0.18737126151691       -3.84695187505631        1.07242301648816
C           -1.18046335148475       -3.73039694165994        1.19902007039196
C           -1.80199324310714       -2.51859207830682        0.90532254070710
C           -1.07129331152090       -1.40298992124258        0.48526050840316
C           -1.71174024321467       -0.18503906260045        0.09623554794032
C           -3.16478551877911       -0.11207864693599        0.04199706696760
C           -3.86520542280433        0.89172844761953        0.72480620795104
C           -5.24074269775997        0.95379368052726        0.69000719276095
C           -5.96448584101486        0.02042453983822       -0.04892549214852
N           -7.36662843849309        0.08683208684811       -0.08827334305366
C           -8.24348677551086       -0.97680910864506       -0.02445728814245
C           -8.03115959954083       -2.33015780103918        0.19537627628586
C           -9.15726229995171       -3.13570703124413        0.23112129697495
C          -10.42362557013742       -2.57586369729788        0.06177873998456
N          -10.64723508655619       -1.28632630476172       -0.11224242522012
C           -9.57870874732265       -0.50188179980210       -0.14798557089399
C           -9.49123164814575        0.92170971190322       -0.28499539573535
C          -10.39389063308724        1.96264211933340       -0.44598331600179
C           -9.87137096728881        3.24225145543321       -0.54280965417177
C           -8.49238760033827        3.43086363892645       -0.48211579843699
N           -7.60752686455237        2.45799142384037       -0.33050402661053
C           -8.10792794610119        1.23670655197206       -0.23119225806431
C           -5.28347151991979       -0.96757503393366       -0.75833623230798
C           -3.90850496010957       -1.03840254201655       -0.70065490570499
C           -0.92750462772166        0.96317248205350       -0.23757688354877
C           -1.51110910231532        2.13934453328351       -0.71839711215514
C           -0.75390077963276        3.28475820715400       -0.95532173101063
C            0.60260287380794        3.27253801440331       -0.70974304545381
C            1.21984136888182        2.09383770034480       -0.29676850820213
C            0.49383408092957        0.91270499927607       -0.11401517030453
C            3.23952915289692       -0.86117165101729        1.42929997480353
C            4.61532957556503       -0.91541848807957        1.48626898293782
H            6.57389736134146        2.12722154943221       -0.42082304280812
H            7.27875814609970        4.36447445762311        0.35623948546969
H            8.77677785861507        4.57709585110625        2.30283033077127
H            9.56963217344144        2.55951699444032        3.48192205941007
H            8.85366882307221        0.31339336142981        2.69023983097573
H            6.66074243301593       -2.60245147652028       -1.30288781609618
H            7.53794929060049       -3.14156634165024       -3.56127365676944
H            9.21551441881811       -1.66165086011144       -4.60520756466996
H           10.01993262656224        0.33518253184231       -3.40384269176975
H            9.13780626462326        0.86767442143271       -1.15937909336074
H            5.34318492324104        0.23845543954837       -1.61031761712932
H            2.88952859171198        0.34540245188705       -1.71325815010104
H            2.01634158633889       -2.83802839820202        0.62895142844332
H            0.67973885679228       -4.79004554403888        1.25782228359177
H           -1.77768377430997       -4.57427741374135        1.51114336338739
H           -2.87266727510476       -2.44125275811057        1.01313630331541
H           -3.31529265135520        1.60223732927137        1.32364424890561
H           -5.76839175859248        1.72335701266753        1.23031514493106
H           -7.04405611450333       -2.73962035055777        0.34757846436019
H           -9.06057821657140       -4.19715930100089        0.39705579589036
H          -11.30804943655583       -3.19856278403446        0.08136469367470
H          -11.45530852728127        1.77221852089660       -0.49254174850204
H          -10.52083950124691        4.09425905703634       -0.66644280328038
H           -8.06660984817569        4.42255279303078       -0.55877277028914
H           -5.83394582828025       -1.66099543724374       -1.37648098366671
H           -3.38938724753771       -1.79116432080444       -1.27533642486920
H           -2.57124489059137        2.16404125904378       -0.91753540406149
H           -1.24010648432105        4.17904152967988       -1.31570654363243
H            1.19544127841182        4.16433175549610       -0.84857951286586
H            2.28238244177344        2.09808636905827       -0.10872103177690
H            2.65097418912098       -1.15222331954942        2.28743255788056
H            5.12170731784000       -1.27496144114194        2.37215423111560
