  76
       -117.30662720
 O          9.0530609968        0.2385676337       -0.5876795530
 C          8.0370598995        0.8466900396       -0.3046287397
 C          8.0567971397        2.3022731296       -0.0101194718
 C          9.1742075479        2.8458416482        0.6201516405
 C          9.2327727034        4.1992404827        0.8923856872
 C          8.1864406305        5.0266187588        0.5167170344
 C          7.0835428555        4.4977982104       -0.1347770581
 C          7.0128899943        3.1415820162       -0.3948576446
 C          6.7207671006        0.1673885528       -0.2364862295
 C          5.7178807210        0.5792500951        0.6409335566
 C          4.5226883983       -0.1057684654        0.7054633755
 C          4.2976537046       -1.2103611503       -0.1167796005
 N          3.0850455043       -1.8963704208       -0.0536753245
 C          2.9336580454       -3.2683911081        0.0524604031
 C          3.8978640126       -4.2597918539        0.1600713195
 C          3.4677918937       -5.5669531817        0.2904554137
 C          2.1130489621       -5.8875561156        0.3245946151
 C          1.1490544812       -4.9020897464        0.2476011196
 C          1.5572908540       -3.5818587772        0.1161950441
 C          0.8481349819       -2.3340848103        0.0371604524
 C         -0.4987667113       -2.0085576344        0.0320329132
 C         -0.8756155596       -0.6753392287       -0.0763601115
 C         -2.2946638152       -0.2984530736       -0.0656767878
 C         -2.7267619311        0.8439942205        0.6066923935
 C         -4.0589863697        1.1968089121        0.6304340279
 C         -5.0091333695        0.4199268526       -0.0330912119
 N         -6.3593674686        0.7792242841       -0.0163639214
 C         -6.7215649669        2.1306155995       -0.0548226500
 C         -7.8052448123        2.5952554288        0.6900116687
 C         -8.1593402917        3.9296539706        0.6455724560
 C         -7.4387600597        4.8220602969       -0.1312859430
 C         -6.3591276855        4.3664936570       -0.8702127373
 C         -6.0022916265        3.0325573699       -0.8388647996
 C         -7.3486773253       -0.2076504144        0.0505176322
 C         -8.5506213417       -0.0513144604       -0.6398527686
 C         -9.5284014186       -1.0239425180       -0.5648509698
 C         -9.3240007487       -2.1687240717        0.1880235637
 C         -8.1300187037       -2.3316105656        0.8713094989
 C         -7.1495568493       -1.3606815733        0.8098054205
 C         -4.5827900755       -0.7211898637       -0.7134172252
 C         -3.2500748379       -1.0736867443       -0.7215415478
 C          0.1120044068        0.3113942820       -0.2042219335
 C          1.4581082318        0.0085161836       -0.2053926945
 C          1.8277154175       -1.3208289934       -0.0600210697
 C          5.2998892186       -1.6274800575       -0.9931689627
 C          6.5005659765       -0.9530089454       -1.0377205747
 H          9.9838889536        2.1872455214        0.8972896439
 H         10.0965249303        4.6111905537        1.3923999708
 H          8.2333963057        6.0852940048        0.7243239848
 H          6.2757795158        5.1454535579       -0.4421633542
 H          6.1611442660        2.7338577547       -0.9200774940
 H          5.8898359594        1.4174467105        1.2997713419
 H          3.7615436393        0.1938041297        1.4100289473
 H          4.9509741152       -4.0230384035        0.1579021675
 H          4.2001843734       -6.3561715388        0.3723135486
 H          1.8176398505       -6.9211359214        0.4244866392
 H          0.0987511802       -5.1467135841        0.2946648361
 H         -1.2443539577       -2.7828494529        0.1299758963
 H         -2.0114247352        1.4474655707        1.1460793514
 H         -4.3770463874        2.0761416070        1.1713749393
 H         -8.3625937220        1.9033194239        1.3042655640
 H         -8.9990361754        4.2765020904        1.2295526065
 H         -7.7164040634        5.8646141089       -0.1605631545
 H         -5.7952625925        5.0534714879       -1.4838574996
 H         -5.1660871214        2.6773690936       -1.4234865218
 H         -8.7089172358        0.8358803360       -1.2353681148
 H        -10.4537439989       -0.8900825835       -1.1055812429
 H        -10.0893190522       -2.9277571404        0.2422230498
 H         -7.9635032459       -3.2181125347        1.4654116178
 H         -6.2240800353       -1.4853739777        1.3527401372
 H         -5.3065194545       -1.3250782340       -1.2410372678
 H         -2.9387526960       -1.9493529915       -1.2719219075
 H         -0.1930205470        1.3396082326       -0.3308248962
 H          2.1962471250        0.7863657076       -0.3317725175
 H          5.1217838216       -2.4700987371       -1.6437241764
 H          7.2856811771       -1.2702777494       -1.7075142116
