  69
  -117.034506529800       0.283169810276573      !
 C         -7.9722195485       -3.9911760202       -0.1384511133
 C         -6.6736631511       -3.7660292093        0.2850908056
 C         -6.1505452859       -2.4859902138        0.2965871400
 C         -6.9161199577       -1.4009303902       -0.1279410830
 C         -8.2455687236       -1.6365623993       -0.5176431525
 C         -8.7608539827       -2.9215640453       -0.5293402978
 O         -9.0886068904       -0.6231701725       -0.8800515661
 C         -8.5973239420        0.6526224679       -0.8494279813
 C         -9.4653663248        1.6705580304       -1.2063634811
 C         -9.0250148293        2.9835456374       -1.2326991260
 C         -7.7068747420        3.2698950262       -0.9220157112
 C         -6.8335942264        2.2590133828       -0.5638957559
 C         -7.2667991683        0.9356998146       -0.4962447366
 N         -6.4191307956       -0.1041764164       -0.1357981784
 C         -5.0740837665        0.1482309996        0.2095204652
 C         -4.7653951300        0.9572262496        1.3159456694
 C         -3.4634047306        1.1976016955        1.6546489551
 C         -2.4066111424        0.6470475008        0.8875670345
 C         -1.0731701066        0.9115545185        1.2383397423
 N         -0.6484670491        1.6553466344        2.2587171258
 N          0.6520340979        1.6550082907        2.2560874987
 C          1.0722515008        0.9110137903        1.2339104414
 C          2.4044632611        0.6454019675        0.8792870313
 C          2.7256326831       -0.1723873218       -0.2319221227
 C          4.0310279623       -0.4199999181       -0.5582789401
 C          5.0702103809        0.1447580098        0.1959785842
 N          6.4154386857       -0.1066643293       -0.1494861883
 C          7.2586655110        0.9354800993       -0.5135368981
 C          6.8141595550        2.2536833212       -0.6046614805
 C          7.6827849248        3.2677111897       -0.9648686867
 C          9.0075884996        2.9893824061       -1.2541206862
 C          9.4595447440        1.6809711054       -1.2046477777
 C          8.5960521932        0.6598474002       -0.8459928818
 O          9.0987235518       -0.6118055914       -0.8529260052
 C          8.2574971179       -1.6285739239       -0.4956401050
 C          8.7826492801       -2.9096906700       -0.4901412832
 C          7.9964070927       -3.9825541717       -0.1034130470
 C          6.6899214242       -3.7643374920        0.2987063613
 C          6.1572012107       -2.4881046026        0.2939476581
 C          6.9208140469       -1.4000674426       -0.1265052589
 C          4.7640920797        0.9614555195        1.2975977231
 C          3.4631277538        1.2023056456        1.6392406158
 O         -0.0019092683        0.3963376270        0.5395091946
 C         -2.7304837703       -0.1649939478       -0.2270671325
 C         -4.0365378842       -0.4115121200       -0.5509344898
 H         -8.3787476282       -4.9898804891       -0.1521711469
 H         -6.0598141195       -4.5897239034        0.6147601273
 H         -5.1444023564       -2.3167836175        0.6447658836
 H         -9.7840151183       -3.0590874308       -0.8403596998
 H        -10.4788169291        1.4099811416       -1.4660750592
 H         -9.7066661613        3.7719261102       -1.5094470542
 H         -7.3480942797        4.2864852229       -0.9628642107
 H         -5.8041881591        2.4895091618       -0.3423679029
 H         -5.5720742025        1.3640510055        1.9088559728
 H         -3.2073221531        1.7990851450        2.5115210385
 H          1.9230896236       -0.5889514575       -0.8206874137
 H          4.2764785167       -1.0341439609       -1.4134110534
 H          5.7795892240        2.4772344051       -0.4001205389
 H          7.3147098268        4.2800943398       -1.0263545955
 H          9.6854246736        3.7802106008       -1.5333980619
 H         10.4787717164        1.4264787667       -1.4473134166
 H          9.8108674281       -3.0416893259       -0.7863986048
 H          8.4103695019       -4.9782836986       -0.1047602579
 H          6.0773373791       -4.5904338317        0.6247544151
 H          5.1448551972       -2.3243697379        0.6264924443
 H          5.5724295747        1.3740271476        1.8842468351
 H          3.2090842028        1.8097292300        2.4925187638
 H         -1.9294417381       -0.5750125009       -0.8222686016
 H         -4.2842949410       -1.0163227068       -1.4119903681
  69
  -117.034431331900       0.261510052417420      !
 C         -8.7064257092       -3.4411999416        0.3671801579
 C         -7.3905011334       -3.4156673357        0.7959088764
 C         -6.6166599295       -2.2829170465        0.6214901936
 C         -7.1501662140       -1.1427750005        0.0225138306
 C         -8.4763048741       -1.1921505342       -0.4399510999
 C         -9.2445553027       -2.3299947214       -0.2606294374
 O         -9.0581210769       -0.1450923359       -1.0996525567
 C         -8.3083977243        0.9828791095       -1.2863093809
 C         -8.9108921351        2.0403291830       -1.9459654082
 C         -8.2196375887        3.2254775281       -2.1376645242
 C         -6.9311717466        3.3545586771       -1.6481250076
 C         -6.3211606789        2.3020020651       -0.9906198071
 C         -6.9876222269        1.0897692601       -0.8182478902
 N         -6.4024853572        0.0123325268       -0.1676516926
 C         -5.0628314030        0.0786494900        0.2734000790
 C         -4.7621656690       -0.0364204771        1.6408635972
 C         -3.4650097893        0.0045011674        2.0692452846
 C         -2.4050148330        0.1414600951        1.1389031846
 C         -1.0731398441        0.1253808791        1.5830936233
 N         -0.6497804967        0.0059235117        2.8403455042
 N          0.6510071114        0.0034133949        2.8390019562
 C          1.0722124973        0.1210409934        1.5807786034
 C          2.4031596966        0.1328893981        1.1340382126
 C          2.7179243429        0.2580073811       -0.2414479524
 C          4.0196768291        0.2338199192       -0.6616791887
 C          5.0600679565        0.0707543824        0.2646376071
 N          6.3998459601        0.0103627064       -0.1760929965
 C          6.9810317814        1.0895622205       -0.8276253975
 C          6.3046691644        2.2938495438       -1.0163589093
 C          6.9115585295        3.3477589490       -1.6745626286
 C          8.2070339867        3.2288579742       -2.1477039487
 C          8.9079228017        2.0523841607       -1.9392864903
 C          8.3082231669        0.9930555910       -1.2798164018
 O          9.0673618837       -0.1258929052       -1.0775029763
 C          8.4858743463       -1.1781675979       -0.4260234341
 C          9.2606206433       -2.3102870314       -0.2388972305
 C          8.7237877045       -3.4261489775        0.3818126390
 C          7.4028857236       -3.4107869834        0.7956108657
 C          6.6227120657       -2.2835005854        0.6137402625
 C          7.1543924860       -1.1389512915        0.0215318341
 C          4.7611725007       -0.0445083433        1.6325287557
 C          3.4646641610       -0.0043096318        2.0626945550
 O         -0.0012266169        0.2176173980        0.7209181202
 C         -2.7217851213        0.2698266835       -0.2358324279
 C         -4.0240943852        0.2456126149       -0.6541079262
 H         -9.3109052864       -4.3232656335        0.5062754257
 H         -6.9553778240       -4.2840382148        1.2653841390
 H         -5.5875600081       -2.2783406553        0.9422917061
 H        -10.2584526212       -2.3250170027       -0.6272189811
 H         -9.9233117747        1.9150752062       -2.2947375147
 H         -8.6938537361        4.0445084709       -2.6544321984
 H         -6.3940225164        4.2819650031       -1.7720565521
 H         -5.3243254329        2.4152143607       -0.5960619117
 H         -5.5728085959       -0.1379176128        2.3482155146
 H         -3.2155294210       -0.0671267707        3.1152770298
 H          1.9123564309        0.3579100756       -0.9522027895
 H          4.2593192543        0.3110331438       -1.7129480212
 H          5.3023153415        2.4004046679       -0.6340832520
 H          6.3662043622        4.2684750498       -1.8117099386
 H          8.6790915068        4.0492622498       -2.6644242472
 H          9.9259954929        1.9353220726       -2.2744931389
 H         10.2787947310       -2.2969697384       -0.5931605058
 H          9.3332072409       -4.3038533762        0.5267375249
 H          6.9692610088       -4.2824827077        1.2602203905
 H          5.5901936442       -2.2865225183        0.9232404200
 H          5.5729020844       -0.1452484287        2.3387965895
 H          3.2166692983       -0.0760256343        3.1091033016
 H         -1.9174438793        0.3721694101       -0.9475212933
 H         -4.2656143586        0.3255091382       -1.7046758733
  69
  -117.034318623700       0.232108628484262      !
 C         -8.5753720763       -3.5277696815        0.3256603993
 C         -7.2589536673       -3.4620890187        0.7485910434
 C         -6.5263599866       -2.3003393279        0.5871905711
 C         -7.1024230197       -1.1714066735        0.0067196259
 C         -8.4285155879       -1.2605150124       -0.4496162677
 C         -9.1554888280       -2.4271069157       -0.2832249349
 O         -9.0504499525       -0.2244567358       -1.0898281365
 C         -8.3388336962        0.9289841432       -1.2703382570
 C         -8.9796657610        1.9723834482       -1.9160246546
 C         -8.3277761451        3.1803918552       -2.1026376596
 C         -7.0399282454        3.3459023126       -1.6225860986
 C         -6.3918317679        2.3079694387       -0.9784872888
 C         -7.0187653736        1.0742524496       -0.8104176398
 N         -6.3958399304        0.0112320785       -0.1716405014
 C         -5.0591344177        0.1169167674        0.2709949191
 C         -4.7578727245       -0.0014735861        1.6380669574
 C         -3.4625935801        0.0649281126        2.0687152407
 C         -2.4045452341        0.2301985421        1.1406637671
 C         -1.0730304012        0.2232553073        1.5862172501
 N         -0.6512487288        0.0930200189        2.8429597411
 N          0.6494188003        0.0897098080        2.8432379670
 C          1.0723578733        0.2180934595        1.5866987363
 C          2.4039655224        0.2196322304        1.1415960599
 C          2.7225620279        0.3532096503       -0.2321678679
 C          4.0237491650        0.3034924896       -0.6517976852
 C          5.0590717408        0.1055628992        0.2734173589
 N          6.3963825167        0.0072841418       -0.1688443943
 C          7.0104898942        1.0730226137       -0.8117283298
 C          6.3757698975        2.3029022488       -0.9784615491
 C          7.0143542205        3.3433020888       -1.6281358999
 C          8.3000317756        3.1838105119       -2.1160899695
 C          8.9602205152        1.9802989803       -1.9297525473
 C          8.3292753165        0.9348211494       -1.2774417704
 O          9.0491662827       -0.2133370945       -1.0961807487
 C          8.4371196934       -1.2508155840       -0.4487412643
 C          9.1733264497       -2.4110345045       -0.2792344063
 C          8.6035069636       -3.5129830525        0.3369056102
 C          7.2878670740       -3.4554283388        0.7632342194
 C          6.5460977876       -2.3000372609        0.5988866408
 C          7.1119733187       -1.1694533804        0.0117700505
 C          4.7571900359       -0.0114931432        1.6404386393
 C          3.4615800925        0.0547493275        2.0702120034
 O          0.0000736642        0.3248530787        0.7265057984
 C         -2.7227949647        0.3686027200       -0.2327026757
 C         -4.0238496790        0.3191740113       -0.6531246595
 H         -9.1475822224       -4.4327739659        0.4541565482
 H         -6.7915917734       -4.3208384158        1.2049502388
 H         -5.4965619220       -2.2640430343        0.9035713572
 H        -10.1712491155       -2.4520829999       -0.6438290086
 H         -9.9904521801        1.8180691713       -2.2580596706
 H         -8.8319014949        3.9884282381       -2.6085830138
 H         -6.5332620222        4.2908120355       -1.7431235793
 H         -5.3962692124        2.4495336636       -0.5898651613
 H         -5.5669704113       -0.1297536163        2.3428651146
 H         -3.2127214791       -0.0104283816        3.1144249470
 H          1.9199307550        0.4766417242       -0.9426081452
 H          4.2662194542        0.3863735543       -1.7020031499
 H          5.3810740211        2.4391588655       -0.5857033839
 H          6.5011877892        4.2847422512       -1.7485521972
 H          8.7964283357        3.9934209071       -2.6269378963
 H          9.9700442906        1.8312876823       -2.2768777066
 H         10.1883343079       -2.4298840452       -0.6423464642
 H          9.1830553787       -4.4127709793        0.4681022183
 H          6.8281063978       -4.3158530215        1.2237284696
 H          5.5166195511       -2.2703100215        0.9171511375
 H          5.5661186028       -0.1355158279        2.3462204354
 H          3.2112889861       -0.0183524506        3.1159158483
 H         -1.9200550637        0.4949334250       -0.9424332143
 H         -4.2657525300        0.4037271844       -1.7032941085
  69
  -117.034281687500       0.223211508821745      !
 C         -7.8668507683       -4.0095929685       -0.0857069012
 C         -6.5455439656       -3.7498789159        0.2343502327
 C         -6.0576576897       -2.4561686807        0.2088805989
 C         -6.8815249578       -1.3909339673       -0.1519536253
 C         -8.2311067763       -1.6622001437       -0.4344986280
 C         -8.7116346874       -2.9605454881       -0.4084810472
 O         -9.1295163048       -0.6725366521       -0.7210697765
 C         -8.6722485218        0.6158626287       -0.7308490866
 C         -9.5945589992        1.6100455159       -1.0092887813
 C         -9.1921879349        2.9338878370       -1.0753197208
 C         -7.8588955981        3.2545731222       -0.8857725608
 C         -6.9321562631        2.2678038115       -0.6031578104
 C         -7.3243909676        0.9344823502       -0.4919438722
 N         -6.4224494662       -0.0797730475       -0.1968585597
 C         -5.0764092394        0.2158942680        0.1051064023
 C         -4.7626300625        1.0375532616        1.2014760139
 C         -3.4596527223        1.2869911265        1.5276062016
 C         -2.4052797652        0.7305647223        0.7607266546
 C         -1.0721811174        0.9738763806        1.1267449986
 N         -0.6518718793        1.7006919812        2.1614233946
 N          0.6477189318        1.6706163684        2.1856118711
 C          1.0722670441        0.9242519577        1.1668077268
 C          2.4070744299        0.6342225197        0.8417240630
 C          2.7423561110       -0.1769469998       -0.2699668807
 C          4.0518186021       -0.4350136510       -0.5722041537
 C          5.0808482289        0.1116045674        0.2085563634
 N          6.4309332317       -0.1352240714       -0.1218551125
 C          7.2776047480        0.9129127097       -0.4609023020
 C          6.8364507616        2.2336056038       -0.5272302582
 C          7.7084278225        3.2527733464       -0.8642228648
 C          9.0333089758        2.9774180072       -1.1553377010
 C          9.4823204229        1.6673438362       -1.1296464841
 C          8.6158019984        0.6412476916       -0.7930416660
 O          9.1167678572       -0.6307511692       -0.8215537516
 C          8.2754906634       -1.6518157417       -0.4770137497
 C          8.8015109925       -2.9324022465       -0.4817461224
 C          8.0142698566       -4.0095410953       -0.1090524261
 C          6.7054270861       -3.7965352165        0.2881372854
 C          6.1715941916       -2.5207890562        0.2930062193
 C          6.9370233786       -1.4282168542       -0.1115673472
 C          4.7605041357        0.9123021874        1.3177424235
 C          3.4554127866        1.1634856532        1.6350550342
 O          0.0016955880        0.4402293100        0.4454506748
 C         -2.7339547708       -0.0733475085       -0.3584628626
 C         -4.0415100755       -0.3270422919       -0.6713999606
 H         -8.2464227369       -5.0187785746       -0.0703132494
 H         -5.8852546353       -4.5564042948        0.5126619641
 H         -5.0328369608       -2.2626236417        0.4808005464
 H         -9.7524023357       -3.1245924964       -0.6372216424
 H        -10.6203874509        1.3233819089       -1.1765815164
 H         -9.9166389620        3.7039818673       -1.2873641486
 H         -7.5315441442        4.2798079000       -0.9604655800
 H         -5.8931324176        2.5241944470       -0.4734652412
 H         -5.5662611381        1.4429422328        1.7994812141
 H         -3.1999094255        1.8943659516        2.3791913399
 H          1.9479492059       -0.5773407791       -0.8805256537
 H          4.3085249072       -1.0410434358       -1.4297436317
 H          5.8021019032        2.4558523875       -0.3209647200
 H          7.3432401073        4.2671550054       -0.9032341723
 H          9.7140933125        3.7724450869       -1.4147150233
 H         10.5019237641        1.4156519871       -1.3735411126
 H          9.8313365966       -3.0608178055       -0.7740396832
 H          8.4297431647       -5.0046186429       -0.1164183227
 H          6.0923773463       -4.6263913057        0.6035024211
 H          5.1573803596       -2.3604630831        0.6214230237
 H          5.5608865003        1.3066053760        1.9274278722
 H          3.1897544574        1.7614315051        2.4914648820
 H         -1.9357053772       -0.4773422505       -0.9616427518
 H         -4.2924343577       -0.9317289866       -1.5315959122
