  69
       -117.47954256
 C         -7.9722195485       -3.9911760202       -0.1384511133
 C         -6.6736631511       -3.7660292093        0.2850908056
 C         -6.1505452859       -2.4859902138        0.2965871400
 C         -6.9161199577       -1.4009303902       -0.1279410830
 C         -8.2455687236       -1.6365623993       -0.5176431525
 C         -8.7608539827       -2.9215640453       -0.5293402978
 O         -9.0886068904       -0.6231701725       -0.8800515661
 C         -8.5973239420        0.6526224679       -0.8494279813
 C         -9.4653663248        1.6705580304       -1.2063634811
 C         -9.0250148293        2.9835456374       -1.2326991260
 C         -7.7068747420        3.2698950262       -0.9220157112
 C         -6.8335942264        2.2590133828       -0.5638957559
 C         -7.2667991683        0.9356998146       -0.4962447366
 N         -6.4191307956       -0.1041764164       -0.1357981784
 C         -5.0740837665        0.1482309996        0.2095204652
 C         -4.7653951300        0.9572262496        1.3159456694
 C         -3.4634047306        1.1976016955        1.6546489551
 C         -2.4066111424        0.6470475008        0.8875670345
 C         -1.0731701066        0.9115545185        1.2383397423
 N         -0.6484670491        1.6553466344        2.2587171258
 N          0.6520340979        1.6550082907        2.2560874987
 C          1.0722515008        0.9110137903        1.2339104414
 C          2.4044632611        0.6454019675        0.8792870313
 C          2.7256326831       -0.1723873218       -0.2319221227
 C          4.0310279623       -0.4199999181       -0.5582789401
 C          5.0702103809        0.1447580098        0.1959785842
 N          6.4154386857       -0.1066643293       -0.1494861883
 C          7.2586655110        0.9354800993       -0.5135368981
 C          6.8141595550        2.2536833212       -0.6046614805
 C          7.6827849248        3.2677111897       -0.9648686867
 C          9.0075884996        2.9893824061       -1.2541206862
 C          9.4595447440        1.6809711054       -1.2046477777
 C          8.5960521932        0.6598474002       -0.8459928818
 O          9.0987235518       -0.6118055914       -0.8529260052
 C          8.2574971179       -1.6285739239       -0.4956401050
 C          8.7826492801       -2.9096906700       -0.4901412832
 C          7.9964070927       -3.9825541717       -0.1034130470
 C          6.6899214242       -3.7643374920        0.2987063613
 C          6.1572012107       -2.4881046026        0.2939476581
 C          6.9208140469       -1.4000674426       -0.1265052589
 C          4.7640920797        0.9614555195        1.2975977231
 C          3.4631277538        1.2023056456        1.6392406158
 O         -0.0019092683        0.3963376270        0.5395091946
 C         -2.7304837703       -0.1649939478       -0.2270671325
 C         -4.0365378842       -0.4115121200       -0.5509344898
 H         -8.3787476282       -4.9898804891       -0.1521711469
 H         -6.0598141195       -4.5897239034        0.6147601273
 H         -5.1444023564       -2.3167836175        0.6447658836
 H         -9.7840151183       -3.0590874308       -0.8403596998
 H        -10.4788169291        1.4099811416       -1.4660750592
 H         -9.7066661613        3.7719261102       -1.5094470542
 H         -7.3480942797        4.2864852229       -0.9628642107
 H         -5.8041881591        2.4895091618       -0.3423679029
 H         -5.5720742025        1.3640510055        1.9088559728
 H         -3.2073221531        1.7990851450        2.5115210385
 H          1.9230896236       -0.5889514575       -0.8206874137
 H          4.2764785167       -1.0341439609       -1.4134110534
 H          5.7795892240        2.4772344051       -0.4001205389
 H          7.3147098268        4.2800943398       -1.0263545955
 H          9.6854246736        3.7802106008       -1.5333980619
 H         10.4787717164        1.4264787667       -1.4473134166
 H          9.8108674281       -3.0416893259       -0.7863986048
 H          8.4103695019       -4.9782836986       -0.1047602579
 H          6.0773373791       -4.5904338317        0.6247544151
 H          5.1448551972       -2.3243697379        0.6264924443
 H          5.5724295747        1.3740271476        1.8842468351
 H          3.2090842028        1.8097292300        2.4925187638
 H         -1.9294417381       -0.5750125009       -0.8222686016
 H         -4.2842949410       -1.0163227068       -1.4119903681
