  72
       -119.19024538
 C         -2.9682448395        4.7841028017        1.3343064968
 C         -2.3010372065        3.4667490110        1.0962350091
 C         -0.9284348223        3.3187318706        1.2794175566
 C         -0.3120372121        2.1052026851        1.0737574425
 C         -1.0500940551        0.9874006115        0.6674137997
 C         -2.4326420343        1.1189066646        0.5037052991
 C         -3.0308737335        2.3512477862        0.7152300016
 C         -3.2962801666       -0.0484212366        0.1039858165
 C         -4.4498079076       -0.2115787340        1.0767415971
 C         -4.3917690571       -0.5050134400        2.4206311107
 C         -5.5827563653       -0.5996367144        3.1287358729
 C         -6.8012321618       -0.4023895707        2.4971114632
 C         -6.8629682087       -0.1077501031        1.1442328182
 C         -5.6786580740       -0.0125764848        0.4324527116
 C         -5.4237402481        0.2774248694       -0.9709101375
 C         -6.2884328448        0.5410396041       -2.0201905481
 C         -5.7535777150        0.7821350318       -3.2757395403
 C         -4.3829576066        0.7594680322       -3.4826858134
 C         -3.5109543796        0.4959944807       -2.4345107273
 C         -4.0389264797        0.2583211023       -1.1854983979
 C         -2.5175305007       -1.3296608195       -0.0362045717
 C         -3.2004678723       -2.4897770165       -0.3636037335
 C         -2.5478363002       -3.6986584929       -0.5560748612
 C         -3.3140785351       -4.9408243967       -0.8831018973
 C         -1.1623313046       -3.7198212347       -0.4268592757
 C         -0.4620112294       -2.5797349128       -0.1001642591
 C         -1.1269807251       -1.3683240936        0.1181825255
 N         -0.4201678593       -0.2272419140        0.4566351282
 C          0.9944203390       -0.2826913995        0.5467762215
 C          1.6022629682       -0.8650981844        1.6401047020
 C          2.9974570811       -0.9486567908        1.7870218795
 C          3.7880351086       -0.4249442970        0.7920620681
 C          3.1590434489        0.1698476304       -0.3299795816
 C          4.1072291599        0.6547616849       -1.2626954947
 C          3.6535524540        1.2559971616       -2.4105857738
 C          2.2618453655        1.3594365183       -2.6027370977
 C          1.3436294708        0.8909582509       -1.6948703600
 C          1.7822355861        0.2683535340       -0.5026928397
 C          5.4090034294        0.3544914653       -0.6998041668
 N          6.6091232214        0.6041091669       -1.1836991236
 C          7.6397132117        0.2168696167       -0.4532857054
 N          8.9222055918        0.3137130005       -0.6444492172
 O          9.5273656610       -0.2581498148        0.4412467621
 N          8.6125114258       -0.7299195716        1.3442834989
 C          7.4352566506       -0.4701287884        0.8553458475
 N          6.2201349996       -0.7077446866        1.3130939941
 C          5.2110298980       -0.3084233772        0.5611165807
 H         -3.9429337532        4.8181534522        0.8543270227
 H         -2.3563053027        5.6001619920        0.9556407626
 H         -3.1095715822        4.9424664673        2.4039924673
 H         -0.3361299436        4.1663837528        1.5905807069
 H          0.7513784086        2.0146976171        1.2318274058
 H         -4.0992775108        2.4363779876        0.5770235134
 H         -3.4418892137       -0.6544473240        2.9134522170
 H         -5.5586406466       -0.8274774968        4.1839346788
 H         -7.7146822799       -0.4795725764        3.0681394804
 H         -7.8142268878        0.0439209909        0.6564085344
 H         -7.3567382749        0.5576792687       -1.8645621286
 H         -6.4130939316        0.9882597015       -4.1057312024
 H         -3.9885493276        0.9472386777       -4.4701711754
 H         -2.4430087938        0.4743701779       -2.5984129121
 H         -4.2739475444       -2.4416825046       -0.4784918734
 H         -3.6189105158       -5.4420038619        0.0364483354
 H         -2.7037152482       -5.6339724229       -1.4570425868
 H         -4.2121291216       -4.7039326037       -1.4487746128
 H         -0.6233693523       -4.6414955974       -0.5887947262
 H          0.6128862565       -2.6214248836       -0.0188025481
 H          0.9728580912       -1.2735534020        2.4181306205
 H          3.4229852064       -1.4098527760        2.6640823494
 H          4.3358031712        1.6416661955       -3.1518499945
 H          1.9078815663        1.8311840323       -3.5077697362
 H          0.2861175958        0.9988959274       -1.8858085752
