72
 energy: -119.245977228574 gnorm: 0.000061772555 xtb: 6.7.1 (edcfbbe)
C           -2.95754057443640        4.74273903855180        1.64454913950384
C           -2.30173569897636        3.44041107847130        1.31838570946206
C           -0.93003572636949        3.26800944383272        1.51026589940327
C           -0.31918422960891        2.07038529992709        1.22141177663115
C           -1.06053673029566        0.99088079581270        0.72005139364126
C           -2.44241306026985        1.14569633409375        0.54378724814426
C           -3.03405774322750        2.36387970396059        0.84039751116437
C           -3.30608784817010        0.01811466148415        0.04570763684101
C           -4.46375084432967       -0.22747986614811        1.00131594718860
C           -4.40803618290765       -0.63650257611562        2.31509919185370
C           -5.60117923588256       -0.79622426958259        3.00881954934808
C           -6.81892319862897       -0.54865840030905        2.39327533699460
C           -6.87767806891487       -0.13635679978121        1.07105075075780
C           -5.69152626708492        0.02386491691964        0.37334056977830
C           -5.43546886380440        0.43416140978752       -0.99966689436275
C           -6.30045284538906        0.78742222441445       -2.02268446451161
C           -5.76591497677247        1.13571774129137       -3.25341717038313
C           -4.39498764507544        1.12997140476910       -3.46165472033518
C           -3.52243315481773        0.77728946047820       -2.43968646722527
C           -4.05059238223734        0.43395681245365       -1.21528230172078
C           -2.53103673081668       -1.24820888046330       -0.19910674175106
C           -3.21196628193775       -2.37528513122421       -0.63273591979373
C           -2.55992366911520       -3.56744204255714       -0.91046521226503
C           -3.30758251917014       -4.77128982158308       -1.38401971735201
C           -1.17311974490464       -3.60717644790599       -0.75840120542926
C           -0.47504278517199       -2.50348493475190       -0.32772251452229
C           -1.14134323265814       -1.30793977628424       -0.02274925118220
N           -0.43736574170766       -0.20676099905138        0.42599520678335
C            0.97271849119183       -0.30204328547823        0.58086377274537
C            1.50642950908281       -0.94796218917894        1.67736822092029
C            2.88979223216387       -1.08836947887252        1.88505886196961
C            3.74589152991582       -0.56028973556942        0.94779873333185
C            3.19173957868685        0.10423212220172       -0.17526985967185
C            4.20060367470218        0.58754931530995       -1.04337399354560
C            3.82402912718466        1.25558895209451       -2.18266686190605
C            2.44759430553934        1.42623051882644       -2.43163280611577
C            1.47065911867785        0.95591547257332       -1.58831050718650
C            1.82803157365665        0.26457340424744       -0.40640290594246
C            5.46312460376206        0.20671612131352       -0.43593473840400
N            6.69290334838440        0.42908988250879       -0.87421667037158
C            7.66284341954772       -0.04481117598615       -0.10183967932009
N            8.95803440789406        0.00545886560185       -0.24539218935871
O            9.49158456559638       -0.64087607959375        0.84119703431917
N            8.51619556271762       -1.10802808933532        1.68732184324148
C            7.37501647909381       -0.76789211234757        1.15358656373206
N            6.13395726147721       -0.97858546122280        1.57041600381207
C            5.18303436075277       -0.49462211912448        0.78117142146253
H           -3.96807193526041        4.78190294270724        1.24682608840637
H           -2.38207837068273        5.57294345956699        1.23914559932768
H           -3.00746554198896        4.87335486051499        2.72599543030899
H           -0.33779336697182        4.08516659205002        1.89409318330028
H            0.74148173825735        1.95928270151749        1.38429151523285
H           -4.09908206058906        2.46859263799577        0.69404429926945
H           -3.46120382167190       -0.82921333184538        2.79809838882116
H           -5.57909429790061       -1.11619053005565        4.04021158027203
H           -7.73401290548790       -0.67905252326041        2.95257312525419
H           -7.82843601675337        0.05509644093812        0.59644762742350
H           -7.36880321518118        0.79122040752087       -1.86622512271778
H           -6.42564340466475        1.41407102512285       -4.06242943603034
H           -4.00006829970917        1.40301105327944       -4.42916157575631
H           -2.45551548763793        0.77069007548059       -2.60730864435004
H           -4.28302559088233       -2.31307978134290       -0.75820070823743
H           -3.10088971327307       -4.94619880643454       -2.44031813039522
H           -4.37906219474280       -4.63931886728200       -1.26038383345632
H           -2.99212396642210       -5.65756069222424       -0.83628530768478
H           -0.63735436536071       -4.51715777891277       -0.98378186314094
H            0.59749438587520       -2.55729217130017       -0.22624212400129
H            0.82976133313344       -1.36583395879182        2.40889529304920
H            3.25754119233983       -1.59917744743257        2.76093785087501
H            4.55647175308432        1.64316771884421       -2.87382717213362
H            2.15682168372422        1.95229175724799       -3.32881046945328
H            0.42968642824865        1.11719637609709       -1.82246636123371
