72
 energy: -119.277240130293 gnorm: 0.000063281525 xtb: 6.7.1 (edcfbbe)
C           -2.84669860374830        4.59230252104377        1.92460228304970
C           -2.22138627373813        3.27950208963731        1.56824562476154
C           -0.86947211220485        3.04944599816849        1.80594920197791
C           -0.28616174821727        1.84647632316780        1.47396948094368
C           -1.03042007947144        0.82971945813336        0.86653803238579
C           -2.39782517954744        1.02879693166231        0.67810194511590
C           -2.96618941837400        2.24845291171512        1.02000695213244
C           -3.27828755928854       -0.05341522687138        0.10895464092648
C           -4.58549311219067       -0.14934629560210        0.87054293987588
C           -4.77728523541878       -0.46970692548640        2.19676675746458
C           -6.07491957464928       -0.49545166599795        2.69180533940331
C           -7.15406778828631       -0.20482124934133        1.87044552448290
C           -6.96547519051215        0.11931472697665        0.53576569887164
C           -5.67341796051801        0.14691402086893        0.03648839713155
C           -5.16694160608683        0.44875616344722       -1.29451963311930
C           -5.82478989416196        0.79703534855395       -2.46292205629493
C           -5.07310437843004        1.03187407491833       -3.60372527854532
C           -3.69119978926744        0.91812226697366       -3.58117961301992
C           -3.02679357024330        0.56679831453517       -2.41311725380686
C           -3.76982730364972        0.33679113523245       -1.27654052108093
C           -2.57304465613646       -1.38538139926725        0.03598651423960
C           -3.32088209232826       -2.50837353118280       -0.28433906426225
C           -2.74024598934629       -3.75205028331281       -0.48245447753853
C           -3.58032707872429       -4.94265004923019       -0.82703696191123
C           -1.35660336506952       -3.83840931627233       -0.39719932882888
C           -0.59337801584744       -2.73450374331568       -0.07705388324518
C           -1.18725797492470       -1.49808973254961        0.18673929059582
N           -0.41963840721906       -0.37970415510609        0.52529016335440
C            0.97731535473538       -0.45410633212245        0.56843502499273
C            1.61718947735108       -1.33651841736182        1.43194313868937
C            3.00621991527660       -1.45738706216360        1.51843937560695
C            3.78662793265157       -0.67129433383610        0.69546830652384
C            3.14181325761217        0.22992592123946       -0.18995322738854
C            4.06409137841473        0.95773706534532       -0.97803144433674
C            3.59315282416469        1.86358029123514       -1.89960901973313
C            2.20214592721498        2.01969062486462       -2.01934773386434
C            1.30487495384526        1.31505525873569       -1.24921035924213
C            1.75785360168248        0.38398499191381       -0.28736251251573
C            5.38122864653373        0.51041208812070       -0.56875887844231
N            6.53658029001806        0.90985997284103       -1.01666295101185
C            7.56515824122750        0.27817846374361       -0.40846196643526
N            8.85536645052067        0.42610659510099       -0.60332640304544
O            9.45183546112806       -0.42605914353099        0.24052431605411
N            8.58863726037647       -1.13151140248674        0.98661859598544
C            7.39000525270657       -0.73066860086149        0.62177547704883
N            6.18687467094021       -1.13444471942236        1.07482462534093
C            5.20079041049483       -0.51236524440345        0.47969042712831
H           -3.88606675337823        4.62638622331762        1.60866883228764
H           -2.30759917790478        5.41131296589344        1.45040037308178
H           -2.80612363550599        4.74902102589768        3.00239693982229
H           -0.26765386201566        3.81918370144348        2.26633769544541
H            0.75853381684145        1.68979645389941        1.69458985670488
H           -4.02434813883068        2.38767244860628        0.85216724141141
H           -3.93762086013291       -0.69521914646913        2.83833005988111
H           -6.24537998331374       -0.74419938105313        3.72917716661782
H           -8.15487422951423       -0.23084949520556        2.27708744348619
H           -7.80902590173159        0.34592190490271       -0.09945256063506
H           -6.90095552389595        0.88444857669215       -2.48632398151046
H           -5.56961480455470        1.30556105660097       -4.52360845649622
H           -3.12478428617680        1.10315997294034       -4.48225898870255
H           -1.95075591118531        0.46978971272060       -2.40247017273416
H           -4.39084630445205       -2.40198732816876       -0.39173666357874
H           -3.85093571040425       -4.91615402338853       -1.88326329847794
H           -4.50111940111781       -4.94368925214684       -0.24725935000384
H           -3.04019799256518       -5.86695671744733       -0.63743140279932
H           -0.86285176658283       -4.78001835206437       -0.58803159685515
H            0.47952983728025       -2.83822970102783       -0.04742055131625
H            1.00569063817311       -1.93853531905535        2.08828783850717
H            3.45255585935760       -2.14088016661194        2.22333321500067
H            4.26910539935087        2.43502079343851       -2.51600015610485
H            1.82652312487420        2.72168488513985       -2.74832962995566
H            0.24598100023367        1.47832505247875       -1.37879538087355
