70
 energy: -110.636999266159 gnorm: 0.000072401017 xtb: 6.7.1 (edcfbbe)
C           -2.64456959667938        4.77738397951193       -0.01945488241491
C           -2.60093126492242        4.06989332802841        1.17121462570905
C           -2.87020040657483        2.71264548194576        1.18523733376425
C           -3.18360610710886        2.06191865734559       -0.00390119973646
N           -3.46275154502103        0.67619532549024        0.00611966653643
C           -2.52483846089083       -0.36802591667489        0.06513053512736
C           -1.12487983244946       -0.27747706093932        0.05679200132484
C           -0.38516945365627       -1.48872286487153        0.23723769767982
C            0.97011447324045       -1.51031287219814        0.22947807016632
C            1.74697167451932       -0.32514758792769        0.04815041417952
C            3.16798399101764       -0.34150001401472        0.03745954433966
C            3.90427896939249       -1.54539851911440       -0.14918006133197
C            5.26809288305240       -1.56296291568688       -0.17876368961830
C            6.01857100834506       -0.37973507483347       -0.00738955206032
C            7.44676843486399       -0.37000793779208       -0.03009591276531
C            8.32334546393514       -1.44791399442756       -0.20725370164310
N            9.57320077214441       -0.94001220114760       -0.15120734140016
C           10.78879061254483       -1.53005386670164       -0.25806668372509
C           11.91505681754088       -0.76600659422615       -0.16080553673544
C           11.81719278975044        0.62366160590959        0.04873911108647
C           10.59162270344362        1.22609551017932        0.15652058522049
C            9.43342484923922        0.43947399618745        0.05798251238617
N            8.16499179856001        0.77953654151636        0.13079923618040
C            5.30361332452047        0.82148768178404        0.19214530741846
C            3.94052952060209        0.84284527692294        0.20708384555053
C            1.00132590821071        0.87780990614036       -0.13752851962851
C           -0.35730252715177        0.90616291034821       -0.14211855658638
N           -3.15409499279535       -1.55585930528717        0.10613465732215
C           -4.45950428455601       -1.30317926075164        0.05783997282712
C           -5.52974605435984       -2.24522562549222        0.04501258482083
C           -5.27547096123595       -3.61939902346569        0.07489657522206
C           -6.31352776456754       -4.52148918368552        0.04275212232551
C           -7.62125938322648       -4.04976868745149       -0.02240260117321
C           -7.88328027334717       -2.69669612607084       -0.04956505756680
C           -6.85226517662489       -1.74660323519078       -0.01271090862214
C           -7.09679452856951       -0.31384213049438       -0.02357862730134
C           -8.39488242611161        0.20735979816980       -0.03966052929678
C           -8.64358338064660        1.56232697996012       -0.03147621520166
C           -7.58339620562964        2.46696578892314        0.00228447573382
C           -6.29406608070919        2.00180176209195        0.01440596655205
C           -6.01264784552467        0.62067194875433       -0.00650665209279
C           -4.70315806364112        0.09271850625077        0.00386988402534
C           -3.22827025117202        2.77068501114139       -1.20138498949318
C           -2.95812692977495        4.12749111225093       -1.20298969928512
H           -2.43400436365072        5.83601778036655       -0.02574985409916
H           -2.35759922521283        4.57446523699768        2.09400196335477
H           -2.83719644554771        2.14967108977888        2.10645237136822
H           -0.95368309236059       -2.39187134524341        0.39370564075081
H            1.47228852372341       -2.44864643458232        0.40531665696177
H            3.37258171847101       -2.46971779734095       -0.31270409669791
H            5.78354391159160       -2.49766352504222       -0.34268652458534
H            8.13769778687192       -2.49076663269599       -0.36169159607949
H           10.80327551381667       -2.59741471923959       -0.41842186895512
H           12.88256984482704       -1.23316844052206       -0.24466168993592
H           12.71918261909397        1.21066229774226        0.12244784827962
H           10.47881512306039        2.28543424424542        0.31639295403297
H            5.87612514165926        1.72496887669023        0.33723273036468
H            3.43912712980825        1.78029503941967        0.39038900230942
H            1.53074782258960        1.79811547153787       -0.32919942098553
H           -0.85654476932574        1.84276063510892       -0.32692493885655
H           -4.24638038900756       -3.94134381196692        0.11944908042798
H           -6.11868572320475       -5.58326812610320        0.06514449647805
H           -8.44282200613475       -4.75089097133840       -0.05237456436791
H           -8.91308221831678       -2.38193674503220       -0.10208242784876
H           -9.24003972461462       -0.46144308263551       -0.05451088854019
H           -9.66134398304184        1.92283943218373       -0.04484338103758
H           -7.77609886030167        3.52932290513742        0.02009749681070
H           -5.47768221051393        2.70399106799640        0.04760725992252
H           -3.47409203313497        2.25250627809071       -2.11687636422168
H           -2.99121706905888        4.67667135696326       -2.13183147286367
