70
 energy: -110.720903839591 gnorm: 0.000063483118 xtb: 6.7.1 (edcfbbe)
C           -2.16886571882305        4.56530656435442       -0.12285902263946
C           -1.87463519125812        3.76708146124730        0.97018718111399
C           -2.30011374194794        2.45063092615073        1.00656473813128
C           -3.02500043218488        1.93349309111165       -0.06018234532178
N           -3.43169337343731        0.58122021182688       -0.04005886267195
C           -2.58174635719814       -0.50207929189913       -0.06578529874925
C           -1.13085397425745       -0.42025467222010       -0.11087188298264
C           -0.39300947440798       -1.39277714794844        0.56661579514681
C            0.98501268413239       -1.35936248713099        0.56429972294561
C            1.67456842800386       -0.35467489664892       -0.11565779083726
C            3.14199907295797       -0.30105103426672       -0.09517884930680
C            3.90549361564996       -1.46597589236400       -0.17656341112682
C            5.28264575156412       -1.41051978112813       -0.14750666715614
C            5.94586626786089       -0.18794567863536       -0.03049125511866
C            7.39775684170195       -0.15987485433515        0.00881426155150
C            8.23906695811782        0.93597524094122        0.12771502264364
N            9.50549370703815        0.44990216882981        0.11962788143737
C           10.70746768864418        1.06763382111748        0.20627327261996
C           11.84636377674752        0.32328202841183        0.17133049649439
C           11.77676018579363       -1.08122444838017        0.04716165538906
C           10.56603774302568       -1.70915669420650       -0.03973891789679
C            9.39392415147112       -0.93837298868921       -0.00463891112741
N            8.12917865383241       -1.30236546429168       -0.07158060824746
C            5.18456645237603        0.97848511614939        0.04950377109270
C            3.80677138286106        0.92042937679841        0.01375750246094
C            0.93404029371652        0.59677470772352       -0.81584304204711
C           -0.44569830578163        0.56427449909026       -0.82127689306936
N           -3.23274500847087       -1.64031925829457       -0.04082797800695
C           -4.55244513436357       -1.31610350248079       -0.00272097431808
C           -5.66862501414511       -2.19913061572923       -0.00910932101929
C           -5.49726664580407       -3.58672607511203       -0.06903829148084
C           -6.58717957387205       -4.42018456845272       -0.11108575008351
C           -7.86847038906121       -3.87171861790830       -0.09841584497754
C           -8.04905102936309       -2.50961974715102       -0.03339589568328
C           -6.96050448181171       -1.62480532783634        0.02154023102099
C           -7.11907080368158       -0.18375911363531        0.12325267711493
C           -8.38461618404912        0.41030191139859        0.23729679669629
C           -8.54410306553375        1.76937168531441        0.37272748135008
C           -7.43006286502480        2.60196236967273        0.41591436971487
C           -6.17295445284248        2.06112747986782        0.30148091119003
C           -5.98909171870875        0.68044300368051        0.13622512666739
C           -4.70911429955927        0.06876507077570        0.01368730548079
C           -3.31838538659477        2.73215981576709       -1.16188305987844
C           -2.89041445020201        4.04703864322667       -1.18691687662695
H           -1.83538793844711        5.59164739654437       -0.14759661492135
H           -1.31242330245231        4.16816647588957        1.79984198652871
H           -2.07383711701630        1.81813177567591        1.85234103209262
H           -0.92551533057128       -2.16664126278882        1.09832269665184
H            1.53743682987810       -2.10528311904766        1.11627264868469
H            3.41068684943440       -2.42014413769702       -0.28485359972780
H            5.87629188841363       -2.30908330528772       -0.21498189233816
H            8.03446942683394        1.98304549354063        0.21446550519369
H           10.70029026240101        2.14330321253817        0.30047990816288
H           12.80474643271422        0.81123938200409        0.23965164077593
H           12.69080070467847       -1.65330831046039        0.02204148189632
H           10.47270696539033       -2.77839727158385       -0.13502354654074
H            5.67303297587577        1.93660111347843        0.14350229037195
H            3.23274328610430        1.83213405490782        0.09591548353023
H            1.44663401865752        1.35848763597836       -1.38468742592748
H           -0.98827942623772        1.29658804507142       -1.39929601790466
H           -4.48841853873804       -3.97038999462493       -0.08784698832573
H           -6.45726183317944       -5.49145287194495       -0.15895772891459
H           -8.72984486286986       -4.52293641184494       -0.14012239986098
H           -9.05884917306088       -2.13109431750614       -0.02972396001655
H           -9.26849574791655       -0.20673616446469        0.23003520862633
H           -9.53562293969249        2.18940187070823        0.45833693596243
H           -7.55133734156247        3.66754191890687        0.54400351122161
H           -5.31149530318949        2.70744959435053        0.35213686462111
H           -3.88072920931535        2.31586440507645       -1.98549022749413
H           -3.11915030781589        4.66576962718839       -2.04160914738930
