62
 energy: -95.136909529675 gnorm: 0.000085632995 xtb: 6.7.1 (edcfbbe)
C           -7.76204499089322       -2.98870209864262        0.27048162191820
C           -6.66665601058449       -3.12981233838487       -0.56882460074972
C           -5.71670279565676       -2.13195729297315       -0.65135893170350
C           -5.85254088312624       -0.97352119764885        0.11577272879418
N           -4.89018013951792        0.03520046689020        0.03791465319673
C           -5.14747799816394        1.38588715538983       -0.13813767056675
C           -6.35934811838707        2.04001392371334       -0.29944153344548
C           -6.33289488287387        3.41149384373631       -0.49494224613231
C           -5.13588986376222        4.11431889833186       -0.54028585273817
C           -3.92057327306503        3.45844705802169       -0.41053238656786
C           -3.92331129014965        2.08916116264574       -0.21519907768765
C           -2.87172177511944        1.10707309833672       -0.07802914753305
C           -1.51062648570001        1.20314736537077       -0.06647169518872
C           -0.70006706725746        0.01794690302370        0.08173398835996
C            0.70146099419805        0.05686365483465        0.03600054180105
C            1.43582707205490        1.30339308253504        0.04212222906511
C            2.79334462948658        1.37396500928010        0.04822472628547
C            3.53441539231090        0.17695077064498        0.03841434956819
C            2.85656180559287       -1.07548804140394       -0.04325767383078
C            1.49411221930513       -1.14749641861064       -0.04123294271025
C            3.89241460017515       -2.07961266246823       -0.13157749620071
C            3.86870515411679       -3.46032836476502       -0.21022200741353
C            5.07430400327490       -4.14541614302594       -0.24377234155246
C            6.28280049985177       -3.46395100798198       -0.17977573164662
C            6.33018679505721       -2.08144828908906       -0.10075204096526
C            5.12726615999419       -1.39187766149620       -0.09887326199094
N            4.89119606640259       -0.02959724367312        0.00084081239928
C            5.87102238039820        0.96092715639125        0.09448632011330
C            5.77807723660347        1.94765416669204        1.07767375018867
C            6.74578077575143        2.92796383337409        1.16511679496820
C            7.81634357349972        2.93843783981359        0.28320114732755
C            7.91036173452469        1.95959265141726       -0.69495507592356
C            6.94574829829635        0.97727497008255       -0.79612464624693
C           -1.41649185233834       -1.22067137992177        0.29967805646853
C           -2.77247856040546       -1.31283553555611        0.30460537149138
C           -3.53020568450299       -0.14942295731885        0.07142157898549
C           -6.95232626044454       -0.83651102158137        0.96456876874980
C           -7.89883204787817       -1.83900900684602        1.03409023059288
H           -8.50366399636812       -3.77049369736648        0.33011798144150
H           -6.55784330623978       -4.02123926315252       -1.16884263474641
H           -4.87650867819102       -2.22698548694972       -1.32283041076590
H           -7.29507557119367        1.50239462901782       -0.28902491381804
H           -7.26503930477156        3.94273009288769       -0.61887353043274
H           -5.15348390060760        5.18333535244328       -0.69104770904236
H           -2.99024096828802        4.00290698489249       -0.46719845334670
H           -1.05142840918088        2.16837664790830       -0.19439935304143
H            0.88404391028392        2.22810676339625        0.06197839051970
H            3.29692397607655        2.32948442206517        0.04575990029777
H            1.01662036320643       -2.10694508589220       -0.14596662183923
H            2.92990691417321       -3.99227155895818       -0.23961908431438
H            5.07559174259289       -5.22320885459823       -0.30857815925195
H            7.20751202531259       -4.02190372976423       -0.18752646505991
H            7.27512576217514       -1.56511373017308       -0.02826977148781
H            4.95744120084857        1.92121816460711        1.77888999183500
H            6.67040833019088        3.68541164524371        1.93134866112796
H            8.57199723681422        3.70546346621366        0.35683623169859
H            8.73732702691553        1.96874067822858       -1.38966625328687
H            7.00092602422550        0.23323046371720       -1.57658133436009
H           -0.84871154241131       -2.11016038682977        0.51666329921886
H           -3.26266865545729       -2.25382143360931        0.50722811749843
H           -7.04109148468794        0.04474815569372        1.58200559450102
H           -8.74524757286395       -1.72846565130053        1.69587345150773
