62
 energy: -95.136867687291 gnorm: 0.000050827724 xtb: 6.7.1 (edcfbbe)
C           -7.77656018638608       -3.01555743918604       -0.22882254562195
C           -7.90133189078573       -1.88500724183812       -1.02261724393497
C           -6.94955580669014       -0.88654323399766       -0.97168441097167
C           -5.85632416657504       -1.00813849486510       -0.11198687094120
N           -4.88929138503449       -0.00221947579398       -0.05532711830985
C           -5.14356381854026        1.35328328568693        0.08318198085073
C           -6.35397790087880        2.01328356458480        0.23127217759511
C           -6.32478137950153        3.38963715127275        0.38853038017601
C           -5.12659040422031        4.09161003112793        0.40924591620332
C           -3.91264491846336        3.43071880653745        0.29204384671415
C           -3.91813432721927        2.05650331046278        0.13488181910956
C           -2.86896792219951        1.06945015221332        0.01716520654258
C           -1.50793446043869        1.16327023724652       -0.01193678519709
C           -0.70087471337782       -0.02595106530718       -0.14130765163324
C            0.70155655422382        0.02367255400063       -0.14081962830740
C            1.41937350714402        1.27072446866801       -0.28922075367233
C            2.77563876101220        1.36114262818511       -0.27875634183222
C            3.53051149793510        0.18809908887222       -0.08808700947704
C            2.86952078095694       -1.07150009900177        0.02086078706101
C            1.50850617586027       -1.16534603679178       -0.00899914782949
C            3.91857975125776       -2.05840018839190        0.14081658709403
C            3.91294204523025       -3.43236257233386        0.30012737192802
C            5.12678983587308       -4.09312243779673        0.41909868057408
C            6.32502013438323       -3.39122629485446        0.39800809489182
C            6.35436029985463       -2.01511978184053        0.23861740646003
C            5.14406786240653       -1.35529927759653        0.08876603661753
N            4.88991930953552        0.00000255707476       -0.05200860630094
C            5.85701857425180        1.00582758965843       -0.10957380717358
C            5.73294480155903        2.14584052724251        0.68643974984676
C            6.68833996197294        3.13991607730506        0.62165329105141
C            7.77728549920225        3.01311406258748       -0.22826738277225
C            7.90261257937277        1.88133178941474       -1.02021215549832
C            6.95082219581541        0.88291929988073       -0.96835172044769
C           -1.41857564647378       -1.27323542319945       -0.28829295110412
C           -2.77484034668664       -1.36365932208064       -0.27859809334064
C           -3.52984662748986       -0.19033537851611       -0.09023799809870
C           -5.73279823693694       -2.14691612011672        0.68587868043678
C           -6.68817303953410       -3.14106143685582        0.62201015580523
H           -8.52214097380919       -3.79453415690062       -0.27401748553430
H           -8.74229122944862       -1.78666500039614       -1.69321921995916
H           -7.02877708721511       -0.02047689337717       -1.61156355129186
H           -7.29033753716295        1.47666739610359        0.23936276415879
H           -7.25562024251464        3.92554037504589        0.50167073452060
H           -5.14212354959157        5.16439752657196        0.53056096853492
H           -2.98132071327322        3.97514256426560        0.32927571630805
H           -1.04315954287853        2.12867586364044        0.09458127885318
H            0.85401660294980        2.16998064548889       -0.46945837599244
H            3.26810015369492        2.30957016299011       -0.43572156675753
H            1.04364138075214       -2.13056951934846        0.09875773174833
H            2.98157404443405       -3.97670127571854        0.33758130301280
H            5.14221093601233       -5.16572565854575        0.54204810913501
H            7.25577060216988       -3.92698985657157        0.51253582348246
H            7.29073685320979       -1.47852402335353        0.24645317909706
H            4.89798028374148        2.22938541027235        1.36589446665138
H            6.58883568152687        4.01718147780941        1.24375644791349
H            8.52286996946313        3.79205045466431       -0.27419881293445
H            8.74399229408066        1.78198531427408       -1.69014038795029
H            7.03048238589123        0.01587179368860       -1.60685043222233
H           -0.85308431510230       -2.17275021807466       -0.46678326804945
H           -3.26717829090423       -2.31232866096402       -0.43446442186437
H           -4.89826913706046       -2.22943029911335        1.36599071858872
H           -6.58908445106177       -4.01737777514922        1.24551399482979
