62
 energy: -95.237862979905 gnorm: 0.000020138525 xtb: 6.7.1 (edcfbbe)
C           -7.77867068221861       -2.80818176346010       -1.05512269128704
C           -7.85433580811443       -1.52706763115321       -1.57594280410316
C           -6.89315350829411       -0.58607690977720       -1.25678428982814
C           -5.84938449574692       -0.92180463247613       -0.39917687547819
N           -4.87543452041095        0.02960182514200       -0.06745368120774
C           -5.11683082949556        1.30922253433522        0.39224152451808
C           -6.32278954000440        1.93534449681699        0.67289722900750
C           -6.28113126299132        3.22958254302397        1.15504830240832
C           -5.07241033452000        3.88980703925272        1.36432595864859
C           -3.86870795587512        3.26349607448855        1.11020934825587
C           -3.88463391863574        1.96263055312806        0.62530867701401
C           -2.85329803224072        1.02435848453906        0.27977188434441
C           -1.46855060795638        1.09110493318348        0.28107425787306
C           -0.73485406582822       -0.01184180036501       -0.13580817173764
C            0.73540501924654        0.02433786353767       -0.13334898933311
C            1.41013549106976        1.17482983129893       -0.56477451288756
C            2.78715139197346        1.25795605719206       -0.57694504763033
C            3.51029139751019        0.16080705570324       -0.13107612079980
C            2.85044316752406       -1.01718109827520        0.28645095844963
C            1.46565682745006       -1.08009487547646        0.28574567819549
C            3.87821863906153       -1.95897637903416        0.63267543069056
C            3.85725555275527       -3.25968545327985        1.11775049603545
C            5.05856641939398       -3.89058040703027        1.37176098232291
C            6.26973969829743       -3.23496070630621        1.16216192592628
C            6.31631689864388       -1.94091692263624        0.67989835892307
C            5.11272977738783       -1.31016455666926        0.39935619436465
N            4.87600114383886       -0.02970647643506       -0.06056194019696
C            5.85397729140663        0.91629482156065       -0.39591161536513
C            5.78988705687767        2.20438401681695        0.12803467395169
C            6.75411385992329        3.13578283303038       -0.20932631352408
C            7.79199037062661        2.79111483079766       -1.05918043079199
C            7.85990723249214        1.50861394508236       -1.57765960218746
C            6.89436949911526        0.57338635120088       -1.25481664384030
C           -1.40589089005775       -1.16383934767521       -0.56920861717130
C           -2.78252275891352       -1.25078489183002       -0.58348016876434
C           -3.50909820536071       -0.15591005500956       -0.13770449787436
C           -5.77759177028967       -2.20850792725270        0.12724495197284
C           -6.73743704074323       -3.14568623130039       -0.20649812165038
H           -8.52889132341245       -3.54142888507911       -1.30994947673349
H           -8.66194165638186       -1.26083429468425       -2.24181460625584
H           -6.93613172597951        0.40678333624964       -1.67913204846449
H           -7.26443767981454        1.42633907449364        0.53176028480987
H           -7.20689851107319        3.73935535227863        1.37825254114783
H           -5.08247885002207        4.90229843887777        1.73987061675912
H           -2.93119820933872        3.76854884867430        1.28820940132033
H           -0.96843206827349        1.98581957343490        0.62011856414062
H            0.83084091274895        2.01323277479141       -0.92263088161403
H            3.28312424349536        2.14659344385919       -0.93790483023670
H            0.96271422979088       -1.97335702253330        0.62439825193163
H            2.91778475697614       -3.76102655256942        1.29590732933105
H            5.06480968963781       -4.90307255781217        1.74738511182577
H            7.19357638692137       -3.74830199433545        1.38518061848608
H            7.25993230739796       -1.43563942854298        0.53850006400474
H            4.99191312945456        2.46252993515607        0.80812877789331
H            6.69947335834419        4.13351974837899        0.20059910475649
H            8.54563354384278        3.51985847022112       -1.31681194601784
H            8.66481742591410        1.23678627063124       -2.24453810750445
H            6.93131657502432       -0.42054178766803       -1.67522816451844
H           -0.82374360969392       -2.00044813755466       -0.92659410774937
H           -3.27562471075823       -2.14058868638809       -0.94547483545397
H           -4.97702077010964       -2.46107570057063        0.80638257116962
H           -6.67669736342688       -4.14231505507543        0.20526567721506
