  94
       -150.46379321
 N          1.9617734001       10.0640886650        0.0511155853
 C          1.4112512828        9.0593663639        0.0464119747
 C          0.6963805320        7.8354919111        0.0391577765
 N          1.3749450351        6.7008236080        0.0441317432
 C          0.6932599311        5.5563317235        0.0385486913
 C          1.4126793669        4.3131705465        0.0391092100
 C          2.8131604845        4.3172140130        0.0370244577
 C          3.5187938096        3.1418100247        0.0323252745
 C          2.8422894871        1.9143108662        0.0330599744
 C          3.5831992088        0.6502945755        0.0258695658
 C          3.1433385875       -0.4451575030        0.7698261951
 C          3.8364460903       -1.6353442913        0.7637503799
 C          4.9929954162       -1.7795588209       -0.0063491433
 N          5.6898734915       -2.9844794717       -0.0261250068
 C          7.0864273628       -2.9885805688       -0.1554568657
 C          7.7182631737       -3.9549315929       -0.9365290528
 C          9.0945551469       -3.9604358879       -1.0559165466
 C          9.8588206491       -3.0036083910       -0.4083520178
 C          9.2349353532       -2.0401359430        0.3672396114
 C          7.8598971815       -2.0312323758        0.4994374822
 C          5.0053674531       -4.2021104646        0.0840726913
 C          3.7680049648       -4.3786718232       -0.5342406451
 C          3.0990082659       -5.5818029400       -0.4199019640
 C          3.6531977091       -6.6276801578        0.2996395631
 C          4.8856283026       -6.4596298403        0.9093564582
 C          5.5580880038       -5.2572063994        0.8089352889
 C          5.4357865722       -0.6866340592       -0.7555984467
 C          4.7469043015        0.5058155621       -0.7300154896
 C          1.4547716613        1.9118317928        0.0365457774
 C          0.7071203330        3.0904871834        0.0394307903
 C         -0.7482124106        3.0930793631        0.0399845271
 C         -1.4994434648        1.9170138121        0.0476082346
 C         -2.8869349251        1.9234719863        0.0420124455
 C         -3.6262537500        0.6584556753        0.0469906513
 C         -3.1878829125       -0.4230786667        0.8118045775
 C         -3.8687854225       -1.6199068575        0.8083602714
 C         -5.0095670722       -1.7858340749        0.0191921710
 N         -5.6811106959       -3.0051747536       -0.0063013140
 C         -7.0736755299       -3.0463548142       -0.1612714460
 C         -7.8835254649       -2.0948392439        0.4574840426
 C         -9.2550423237       -2.1412061880        0.2991566828
 C         -9.8399946704       -3.1370389099       -0.4659033853
 C         -9.0397746459       -4.0886548065       -1.0766597191
 C         -7.6665658420       -4.0452440144       -0.9322253454
 C         -4.9649355717       -4.2039173021        0.1174786969
 C         -5.4909797734       -5.2673852783        0.8494217142
 C         -4.7843739248       -6.4489193452        0.9643900360
 C         -3.5446271717       -6.5869567942        0.3620891510
 C         -3.0171821253       -5.5325126510       -0.3651274896
 C         -3.7201480478       -4.3505115778       -0.4937927851
 C         -5.4554858140       -0.7043622829       -0.7442660202
 C         -4.7795125746        0.4959584496       -0.7206107529
 C         -3.5603643775        3.1522187400        0.0260095864
 C         -2.8510682148        4.3256611599        0.0239326513
 C         -1.4505275309        4.3177008316        0.0313210488
 C         -0.7272340051        5.5587305792        0.0309419003
 N         -1.4049932485        6.7055300362        0.0239374654
 C         -0.7224354042        7.8378801760        0.0264486514
 C         -1.4329098800        9.0642819085        0.0163041912
 N         -1.9791536541       10.0712659187        0.0102274523
 H          3.3173634139        5.2710484506        0.0422675077
 H          4.5979122056        3.1569606619        0.0495827679
 H          2.2658990729       -0.3501551825        1.3926639560
 H          3.4920680740       -2.4643679678        1.3643031741
 H          7.1226623638       -4.6965048745       -1.4485844354
 H          9.5725608893       -4.7126429543       -1.6658353349
 H         10.9336225108       -3.0093117403       -0.5065295253
 H          9.8236863728       -1.2951225406        0.8816645892
 H          7.3755630739       -1.2869687067        1.1144585654
 H          3.3398588731       -3.5690726782       -1.1071770528
 H          2.1420231881       -5.7061539404       -0.9050668341
 H          3.1293204392       -7.5676057024        0.3832285609
 H          5.3243566995       -7.2685237793        1.4745384923
 H          6.5151049345       -5.1254997827        1.2921683670
 H          6.3212938678       -0.7858264052       -1.3657846052
 H          5.0946105409        1.3291431991       -1.3362897345
 H          0.9547774961        0.9572045530        0.0116668509
 H         -1.0026197901        0.9605252113        0.0345262165
 H         -2.3209431855       -0.3116706439        1.4464328643
 H         -3.5252371051       -2.4390037687        1.4227354309
 H         -7.4303425817       -1.3251062796        1.0649735769
 H         -9.8716861278       -1.3994619362        0.7846961834
 H        -10.9122013265       -3.1719606531       -0.5842632625
 H         -9.4869281330       -4.8663550000       -1.6779315587
 H         -7.0434728708       -4.7821818655       -1.4173025499
 H         -6.4535405092       -5.1585211347        1.3272705596
 H         -5.2017494181       -7.2646237182        1.5359635527
 H         -2.9939482966       -7.5102765825        0.4578259084
 H         -2.0545418395       -5.6336665106       -0.8444285003
 H         -3.3127664510       -3.5339406102       -1.0719615868
 H         -6.3310695503       -0.8189525729       -1.3658856354
 H         -5.1279833214        1.3105728711       -1.3378817152
 H         -4.6395794067        3.1701654511        0.0382357763
 H         -3.3523554223        5.2810523228        0.0205034943
