  48
        -81.17820383
 C          8.4583249971        0.8483418984        1.0847020165
 C          8.3816616958       -0.0671511968        0.0386313724
 C          7.1608011657       -0.4738859848       -0.4443998800
 C          5.9753151436        0.0362993827        0.1200586489
 C          4.7190527152       -0.3871478825       -0.3745754512
 N          4.4987526601       -1.2473071924       -1.3618025022
 N          3.2201123422       -1.3776898783       -1.5281002057
 C          2.5974703996       -0.5899730399       -0.6321482281
 C          1.2258893306       -0.4272242455       -0.4712562649
 C          0.3146673164       -1.1452744257       -1.3036605744
 C         -1.0287503329       -1.0071456660       -1.1404530523
 C         -1.5476381072       -0.1267050057       -0.1635387683
 N         -2.9339829172        0.0243863473       -0.0102582666
 C         -3.7406626864       -1.0719959990        0.2674834918
 C         -3.2146574164       -2.3482179055        0.4795256110
 C         -4.0473624852       -3.4182598647        0.7437079578
 C         -5.4201877981       -3.2417280804        0.8197076505
 C         -5.9582319794       -1.9762486030        0.6609467994
 C         -5.1303692312       -0.8966174657        0.3972725074
 O         -5.7202124964        0.3295740502        0.3004256476
 C         -4.9179962380        1.4026613037        0.0448980033
 C         -5.5330349093        2.6399818135       -0.0604893393
 C         -4.7849448075        3.7641174081       -0.3652570873
 C         -3.4234062405        3.6409362847       -0.5940291486
 C         -2.8016601838        2.4118441109       -0.4896302569
 C         -3.5288802733        1.2733878531       -0.1354335565
 C         -0.6571592854        0.6007238538        0.6556633852
 C          0.6889516674        0.4487617509        0.5199194985
 O          3.5310538212        0.0783386159        0.1354559845
 C          6.0620522226        0.9629666886        1.1765342171
 C          7.2929180311        1.3575256880        1.6471181884
 H          9.4209249852        1.1631142165        1.4588816889
 H          9.2898005973       -0.4595678176       -0.3954094728
 H          7.0792048317       -1.1810807176       -1.2543276085
 H          0.7281400582       -1.7860047270       -2.0649736101
 H         -1.7187962367       -1.5333213422       -1.7844742981
 H         -2.1469312328       -2.4914131605        0.4473588182
 H         -3.6174907647       -4.3953692069        0.8983886088
 H         -6.0690042460       -4.0788264187        1.0213098456
 H         -7.0182447087       -1.7980727966        0.7451553299
 H         -6.5989518087        2.6946485535        0.0911821722
 H         -5.2678008864        4.7249475723       -0.4423165895
 H         -2.8393142385        4.5063643266       -0.8647537379
 H         -1.7475129740        2.3218593087       -0.6951808831
 H         -1.0631872635        1.2458506005        1.4220364083
 H          1.3729360615        0.9754247582        1.1665546015
 H          5.1521170686        1.3530030538        1.6070577978
 H          7.3552999280        2.0682273687        2.4588497308
