56
 energy: -91.826372194660 gnorm: 0.000087266333 xtb: 6.7.1 (edcfbbe)
O            4.71304446265032        0.71381720467901        2.45772843556063
C            5.31620048885242        0.81593019631623        1.38499900385642
C            5.08570431263065        2.04352033160301        0.51269089834421
C            4.02591956690099        1.58470979304653       -0.44342361785432
C            2.73341133907884        1.36853100060096       -0.02660990330461
C            1.79363145279792        0.89076685536539       -0.96353871766355
C            0.41188736892179        0.65281724769216       -0.68788585536589
C           -0.41548244587478        0.12785558198613       -1.70894814707562
C           -1.74448871928095       -0.12326350139003       -1.49484723484324
C           -2.31550713847551        0.14313913299640       -0.24434443763079
N           -3.68996842885132       -0.11305313838184       -0.01526120733711
C           -4.56759120329209        0.93166886113812        0.21105249100089
C           -4.16086773064138        2.26764615540831        0.17324425823215
C           -5.06650532838407        3.28171374631028        0.41228166296111
C           -6.39717496532231        2.99183045926808        0.68675435097989
C           -6.82739707090709        1.67758291409272        0.70321407572325
C           -5.92628676314380        0.65044675030945        0.46189599747542
O           -6.40877281048990       -0.62240616600003        0.46506862261320
C           -5.53943109772900       -1.64100656412815        0.22062827001954
C           -6.04890917121830       -2.93155412477068        0.22302215542494
C           -5.20707429362215       -4.00686387529088        0.00468049631649
C           -3.84988744939689       -3.79344820251486       -0.20111262796823
C           -3.33210909684526       -2.51366836584270       -0.20568560128737
C           -4.16796772447803       -1.41100808105366       -0.01283169472265
C           -1.51854196815277        0.66500019583390        0.77942360180298
C           -0.18564833943441        0.91116801658603        0.56521327044652
N            2.24111074930620        0.61903835492105       -2.22897264664968
C            3.48846455395190        0.82626639797753       -2.52691847249821
N            4.40775178994601        1.32100892660620       -1.71718968077709
C            6.20561651003916       -0.23480335392655        0.88998772450743
C            6.52881619968615       -1.28412879066012        1.76362068756088
C            7.38164677933609       -2.29429312648381        1.37538164166604
C            7.92841303299102       -2.28834975787904        0.09933310846494
C            7.60835825618360       -1.26413862456763       -0.77981915484923
C            6.76325442325540       -0.24178013558632       -0.39498552603587
H            5.98085950442565        2.35700307168589       -0.01871662851642
H            4.71395910678082        2.85175052991679        1.14457234001877
H            2.46740196578747        1.55518003768809        1.00151879046327
H            0.03605652225357       -0.06298966283714       -2.67000968742521
H           -2.36505512919601       -0.51123579603537       -2.28955014626967
H           -3.13196569048130        2.49782119102136       -0.05106138947732
H           -4.73217183281584        4.30667279342672        0.38075339842637
H           -7.09921636742587        3.78777773916804        0.87662188332322
H           -7.85663096151921        1.42115150715869        0.89610271982056
H           -7.10352849908163       -3.06540794312573        0.40238417320818
H           -5.60652724791899       -5.00831753999141        0.00522933001450
H           -3.18785524052915       -4.63086517498873       -0.35526728385799
H           -2.27617655797077       -2.35485285495912       -0.35275008334055
H           -1.95852322133202        0.85806895254130        1.74724859056675
H            0.40847902474495        1.30220495646868        1.37582816510550
H            3.80587368116886        0.58992797283115       -3.53546608346382
H            6.09124631593404       -1.27275586219868        2.75196837941248
H            7.62211559996261       -3.09105385580029        2.06451799802357
H            8.59677969361110       -3.07903915667526       -0.20809083474368
H            8.02478552712007       -1.26211589826246       -1.77702863337585
H            6.50977516574571        0.53001218446320       -1.10434668896722
