  56
        -91.85917430
 O          4.7628521100       -0.8587359968        2.2672248856
 C          5.3552824214       -0.1309154398        1.4996476617
 C          5.0253539488        1.3579826473        1.4351251744
 C          3.9554554817        1.5449249163        0.3982155794
 C          2.6474523725        1.1494999585        0.6432701999
 C          1.7202082292        1.3220046824       -0.3857831447
 C          0.3149304157        0.9280589745       -0.2750477051
 C         -0.6063355455        1.4388773576       -1.1919499278
 C         -1.9383952070        1.0943335706       -1.1207527662
 C         -2.3838430203        0.2224786920       -0.1285033439
 N         -3.7433189132       -0.1329894281       -0.0504576593
 C         -4.7221045000        0.8406439077        0.1698274634
 C         -4.4075504937        2.1779857223        0.3767342150
 C         -5.4037457146        3.1173668907        0.5956030684
 C         -6.7295016046        2.7355522835        0.6239582022
 C         -7.0582212387        1.3989029835        0.4547431549
 C         -6.0684307747        0.4580980439        0.2388371306
 O         -6.4707966981       -0.8482976529        0.1180482489
 C         -5.4984647201       -1.7935610090       -0.0922385581
 C         -5.9193974100       -3.1037338645       -0.2251584085
 C         -5.0012433884       -4.1126073342       -0.4752273119
 C         -3.6650285857       -3.7959625057       -0.6116932232
 C         -3.2376268636       -2.4837530112       -0.4770959173
 C         -4.1394367932       -1.4664959061       -0.1903355504
 C         -1.4681678549       -0.2991008411        0.7830767847
 C         -0.1353723376        0.0486073775        0.7098836941
 N          2.0988042237        1.8813761811       -1.5419598324
 C          3.3591426124        2.2252179435       -1.6670692903
 N          4.3152023674        2.0757496163       -0.7671610657
 C          6.4023898323       -0.6284183977        0.5844052942
 C          6.9803352160       -1.8677919555        0.8688864255
 C          7.9702357892       -2.3833020910        0.0565042674
 C          8.3849448318       -1.6741583512       -1.0601059518
 C          7.8028140179       -0.4527263098       -1.3609081856
 C          6.8213186319        0.0776000528       -0.5439154718
 H          5.9017366347        1.9469926944        1.1772448382
 H          4.6377774869        1.6538107904        2.4108502079
 H          2.3802657460        0.7266976831        1.5965776707
 H         -0.2489023794        2.1042682691       -1.9616424000
 H         -2.6443578553        1.4879406230       -1.8369911666
 H         -3.3747285321        2.4886357803        0.3763153688
 H         -5.1289038582        4.1497349770        0.7472878139
 H         -7.5085035868        3.4629262132        0.7882285837
 H         -8.0817392021        1.0621406556        0.4928016458
 H         -6.9734173855       -3.3120481048       -0.1350131355
 H         -5.3381424641       -5.1322681331       -0.5737191488
 H         -2.9401851437       -4.5654035468       -0.8284491838
 H         -2.1928568095       -2.2491383444       -0.6057918704
 H         -1.8119577924       -0.9752799651        1.5518410861
 H          0.5558636003       -0.3806035910        1.4183153892
 H          3.6497408283        2.6753945276       -2.6080686864
 H          6.6396858213       -2.4059414980        1.7409744776
 H          8.4173204726       -3.3379609727        0.2902070056
 H          9.1586602513       -2.0752434754       -1.6978395058
 H          8.1178897429        0.0924988349       -2.2381551649
 H          6.3609457848        1.0179999368       -0.8037213427
