56
 energy: -91.898212829728 gnorm: 0.000070429114 xtb: 6.7.1 (edcfbbe)
O            4.73905684093085       -0.85545089266799        2.18305124997451
C            5.36801206329365       -0.12414565710934        1.44209653498895
C            5.02794567864034        1.36173969594556        1.36398504803933
C            3.94737653485689        1.52013705891209        0.33296665391289
C            2.63598072447988        1.15167744295770        0.60342844842113
C            1.70158741169907        1.29033149673894       -0.42516274594503
C            0.29236991683251        0.91724064150891       -0.28766714505206
C           -0.64023438742808        1.44144094610088       -1.18585999261665
C           -1.97433854455974        1.10743115158874       -1.09342106141872
C           -2.40869148331202        0.23180653310662       -0.09976532263695
N           -3.77043412999974       -0.12368932565434       -0.00952941078685
C           -4.74483097310368        0.84818032887801        0.23599438171203
C           -4.42170193391430        2.17493489414729        0.49511823340182
C           -5.41246077516544        3.11362879328583        0.74099706922315
C           -6.74188061828626        2.74184859849319        0.74439154681562
C           -7.07988758151339        1.41509107739467        0.51989965250992
C           -6.09504035627270        0.47541026253795        0.27696726307443
O           -6.50779785604098       -0.82455996671716        0.09879761848375
C           -5.53646951157671       -1.76952630329704       -0.13727602889270
C           -5.96596799738075       -3.06999253832694       -0.32802984423429
C           -5.05177866228947       -4.07677667643464       -0.60256548113713
C           -3.71051885447134       -3.76614640072033       -0.70241934485821
C           -3.27546302501418       -2.46326560228030       -0.51197048087944
C           -4.17391059026856       -1.44835505991693       -0.20428427010599
C           -1.48355782095105       -0.29874421332305        0.79681441423090
C           -0.14869309669856        0.03927987714484        0.70336246678951
N            2.07773107019223        1.79571513558268       -1.60818665047046
C            3.34143320204046        2.11918479891861       -1.75612952319004
N            4.30287608554099        1.99728985706488       -0.85830131175295
C            6.45576805675088       -0.62284685811691        0.58115199828691
C            7.03871201779692       -1.84999507650560        0.91038544135729
C            8.06288889174233       -2.36859201466865        0.14336652024883
C            8.50715498316298       -1.67654652420233       -0.97321674021193
C            7.92134652834800       -0.46835578939095       -1.31910359235368
C            6.90654146242598        0.06608619176669       -0.54652535106998
H            5.89675244705591        1.95585377969259        1.09203974129331
H            4.64455282320253        1.66538703502240        2.33938532884444
H            2.36838798243284        0.77469001808012        1.57627749076945
H           -0.29258254898883        2.10875710562667       -1.95865074324243
H           -2.68827711346376        1.51288603198259       -1.79484887742317
H           -3.38634569563323        2.47663931228355        0.51120441262795
H           -5.13134865849350        4.13765372819216        0.93364598822783
H           -7.51753418188056        3.46800147900425        0.93015213723670
H           -8.10705227113097        1.08559967558178        0.53473295514498
H           -7.02353349040946       -3.27259481811377       -0.26250087412594
H           -5.39589666040548       -5.08886183826498       -0.74615380753292
H           -2.98783559014694       -4.53340571523799       -0.93445089912019
H           -2.22655445913053       -2.23372771713457       -0.61276685016804
H           -1.81898017197853       -0.97654640671472        1.56782146113644
H            0.55179161033664       -0.39901538404672        1.39745229823352
H            3.62971988149398        2.52539173979604       -2.71831338048775
H            6.67482973297495       -2.37523384910982        1.78167191317374
H            8.51312606229263       -3.31237499512538        0.41261569620182
H            9.30673268178656       -2.08105252314874       -1.57589177808920
H            8.25947422186596        0.06324509861356       -2.19604667875049
H            6.44337082970783        0.99505902747907       -0.84088358983408
