  93
       -141.22767837
 C          0.5771806252       -4.5127227201       -1.0677365705
 C          1.1663725214       -3.4636493027       -0.1712895521
 C          2.5380755840       -3.2624653944       -0.1692836377
 C          3.1501871322       -2.2904080110        0.6143551245
 C          4.6179183645       -2.1569207836        0.5452109066
 C          5.4252937729       -3.2716930925        0.7577369650
 C          6.8016720075       -3.1666933217        0.6747057356
 C          7.3951535432       -1.9539283177        0.3759938480
 C          6.5982934670       -0.8363251512        0.1456288613
 N          7.1899021136        0.3960883522       -0.1702080736
 C          6.9345104019        1.5990200210        0.4567366495
 C          6.1030157024        1.8763643888        1.5322225664
 C          6.0481792459        3.1794560059        1.9876647533
 C          6.8081457561        4.1880897209        1.3993797736
 C          7.6575450267        3.9136865445        0.3463485446
 C          7.7289015269        2.6110376598       -0.1298629260
 C          8.4973800365        1.9773246481       -1.1640444068
 C          9.4305256211        2.4416747046       -2.0818139879
 C          9.9821024036        1.5457820916       -2.9754696135
 C          9.6027093231        0.2051662178       -2.9717488573
 C          8.6763524419       -0.2805574214       -2.0689446557
 C          8.1363263132        0.6100687448       -1.1519357238
 C          5.2148537374       -0.9424258168        0.2294596555
 C          2.3608877402       -1.4854345150        1.4404365023
 C          2.9497196845       -0.4447440293        2.3457963597
 C          0.9897418070       -1.6835605534        1.4350957693
 C          0.3783949405       -2.6576728072        0.6532410533
 C         -1.0878581622       -2.7919545260        0.7406069261
 C         -1.6890973506       -4.0022476340        1.0775648172
 C         -3.0627167390       -4.0811047476        1.2172747687
 C         -3.8601793174       -2.9706956137        1.0077212227
 C         -3.2771071743       -1.7578192334        0.6453872519
 C         -4.0322611758       -0.5355692497        0.4220729740
 N         -3.5468776932        0.6499968172        0.6970908746
 C         -4.5195219136        1.5400647808        0.3746044495
 C         -4.4905652956        2.9548096564        0.5219314978
 C         -3.3732858313        3.6044220292        1.0568110067
 C         -3.3753281060        4.9672753945        1.2177473435
 C         -4.5025263127        5.6979180515        0.8471784086
 C         -5.6042918308        5.0697718270        0.3152288714
 C         -5.6376555622        3.6794745214        0.1263292102
 C         -6.7711105398        2.9897860656       -0.4656366098
 C         -7.8935619051        3.6888517388       -0.9316273435
 C         -8.9520276609        3.0521941235       -1.5349292287
 C         -8.9249651479        1.6732962958       -1.7165158929
 C         -7.8485411313        0.9496237081       -1.2664728147
 C         -6.7723655528        1.5756753722       -0.6211121892
 C         -5.6353311155        0.8741497182       -0.1299028584
 N         -5.3120087641       -0.4639083080       -0.0846292331
 C         -6.1021158100       -1.5670345408       -0.4629909686
 C         -7.2615567782       -1.8678337362        0.2462450460
 C         -8.0166213072       -2.9688409326       -0.1124859655
 C         -7.6179221116       -3.7730857732       -1.1683729825
 C         -6.4619114113       -3.4740665440       -1.8699594470
 C         -5.7010381320       -2.3724648559       -1.5222179686
 C         -1.8901309736       -1.6792010047        0.5327017912
 H         -0.4605657949       -4.2905237268       -1.3037531271
 H          1.1446616419       -4.5773097014       -1.9940725227
 H          0.6157555111       -5.4907277035       -0.5870107861
 H          3.1574347452       -3.8704929880       -0.8146474455
 H          4.9667274997       -4.2182185687        1.0032080616
 H          7.4196968307       -4.0345919564        0.8525274653
 H          8.4698958538       -1.8626691416        0.3310287748
 H          5.5269022988        1.0985919826        2.0084381136
 H          5.4048445674        3.4202547757        2.8212657904
 H          6.7355498984        5.1950274665        1.7826179871
 H          8.2596552664        4.6915703177       -0.0986588250
 H          9.7127334643        3.4838293178       -2.0940598347
 H         10.7122258865        1.8855129483       -3.6951965739
 H         10.0403292016       -0.4691430612       -3.6934742970
 H          8.3761305199       -1.3175919820       -2.0852976386
 H          4.6026911073       -0.0796318522        0.0155270145
 H          2.3269805494       -0.3202520336        3.2292518736
 H          3.9532055848       -0.7242476114        2.6596324964
 H          3.0008144978        0.5192905320        1.8387062855
 H          0.3677439198       -1.0738582923        2.0753889716
 H         -1.0760350635       -4.8715832607        1.2616196255
 H         -3.5204136113       -5.0171371959        1.5031382412
 H         -4.9263029644       -3.0485876820        1.1539245594
 H         -2.5252888136        2.9996135903        1.3381154095
 H         -2.5153105707        5.4735245778        1.6308659591
 H         -4.5118320780        6.7704766048        0.9781398665
 H         -6.4535616680        5.6771959900        0.0452636753
 H         -7.9382099996        4.7609370821       -0.8279923896
 H         -9.7997393639        3.6253227858       -1.8806147388
 H         -9.7439563338        1.1735508725       -2.2124237970
 H         -7.8248407090       -0.1165457898       -1.4268177114
 H         -7.5606890639       -1.2339982391        1.0684014035
 H         -8.9166790989       -3.2011884073        0.4367780885
 H         -8.2089454584       -4.6335903558       -1.4429946735
 H         -6.1508812815       -4.0995070080       -2.6930365875
 H         -4.7962133777       -2.1314005439       -2.0601262411
 H         -1.4477461887       -0.7304708757        0.2708491499
