  67
       -107.68689321
 O          4.5989768698       -0.0902724880       -1.6848490985
 P          3.3376341977        0.0151644446       -0.9343934314
 C          1.9680588061        0.6582178474       -1.9412624801
 C          1.6528449674        2.0073384891       -1.9213971133
 C          0.7103579820        2.5015031080       -2.8061868413
 C          0.0838007360        1.6499232563       -3.7003930355
 C          0.4006823894        0.3017870249       -3.7184023356
 C          1.3497773010       -0.1937067029       -2.8449186534
 C          3.4749114864        1.0591013548        0.5489079458
 C          4.6975601639        1.6711409267        0.7849777001
 C          4.8818220389        2.4378850800        1.9216336228
 C          3.8451529825        2.5773481043        2.8294301161
 C          2.6246058873        1.9626334096        2.5947926206
 C          2.4308964801        1.2085642534        1.4522618106
 C          2.7969044545       -1.5966486142       -0.2745581250
 C          3.7752946712       -2.5626118307       -0.0822430300
 C          3.4801111868       -3.8191260761        0.4335854409
 C          2.1835051920       -4.1595752715        0.7683864723
 C          1.1831602333       -3.2155437016        0.5747097730
 C          1.4968062973       -1.9381140738        0.0647692557
 O          0.3867283224       -1.1610390684       -0.0571912905
 C         -0.6574204448       -1.9309969827        0.3333078560
 C         -1.9904532227       -1.5511692923        0.3174499956
 P         -2.3737094000        0.0653394851       -0.4324465057
 O         -1.9948486563        0.1442017813       -1.8470538202
 C         -1.5637525234        1.2889045414        0.6397943096
 C         -1.1587965527        2.4711994317        0.0390059631
 C         -0.6095718780        3.4838662083        0.8041269464
 C         -0.4843783506        3.3209029146        2.1737877688
 C         -0.8836604878        2.1366358046        2.7742328153
 C         -1.4167985239        1.1151536411        2.0092633068
 C         -4.1543514949        0.3179117330       -0.1528670992
 C         -4.9549520637        0.4437641896       -1.2788353327
 C         -6.3169909754        0.6460877572       -1.1424812569
 C         -6.8781120750        0.7240809899        0.1214649297
 C         -6.0782512675        0.6041653423        1.2478031111
 C         -4.7166542272        0.4039637367        1.1146571747
 C         -2.9177284025       -2.4869188870        0.7513207831
 C         -2.5209730143       -3.7451308854        1.1960125736
 C         -1.1913504221       -4.1227520801        1.2004272146
 C         -0.2443525277       -3.2077307774        0.7571036811
 H          2.1458082692        2.6614995417       -1.2141561177
 H          0.4667640914        3.5549529540       -2.7992982893
 H         -0.6589932723        2.0362941221       -4.3823796036
 H         -0.0950477198       -0.3604050070       -4.4116983284
 H          1.6207090122       -1.2414814495       -2.8548857921
 H          5.4901603043        1.5327237372        0.0639842414
 H          5.8317136132        2.9191801345        2.1028817944
 H          3.9874340311        3.1653504094        3.7244136796
 H          1.8213748701        2.0717466072        3.3076310094
 H          1.4767979925        0.7425084699        1.2544996001
 H          4.7867160556       -2.3096003421       -0.3643657335
 H          4.2749243900       -4.5373522077        0.5660239050
 H          1.9449663280       -5.1360500299        1.1608097262
 H         -1.2753911388        2.5699787914       -1.0301643666
 H         -0.2878315416        4.4031604704        0.3373739191
 H         -0.0697674262        4.1165124088        2.7754511614
 H         -0.7832531129        2.0100480807        3.8431599638
 H         -1.7109769388        0.1819598796        2.4711178461
 H         -4.4889908088        0.3817353921       -2.2517443901
 H         -6.9405966905        0.7420764965       -2.0191883682
 H         -7.9407049733        0.8826360632        0.2319138962
 H         -6.5184788788        0.6690815685        2.2322244473
 H         -4.0901970636        0.3159400625        1.9905120052
 H         -3.9673314226       -2.2304130150        0.7386091908
 H         -3.2739894737       -4.4426892046        1.5308220678
 H         -0.8927255913       -5.1055960546        1.5307338608
  67
       -107.68688257
 O          1.6780727825        0.0199570188       -2.5978065240
 P          2.4199489946        0.1068369416       -1.3325805174
 C          1.8486490673        1.4095889934       -0.2030734998
 C          1.3383524820        2.5536799054       -0.7979525364
 C          0.9038119340        3.6062568920       -0.0136957804
 C          0.9732074865        3.5114240901        1.3659732674
 C          1.4872505127        2.3706791885        1.9602542497
 C          1.9346625165        1.3216956487        1.1791081259
 C          4.1980360018        0.4239287743       -1.5549795430
 C          4.6927316109        0.4784037694       -2.8491360318
 C          6.0382821544        0.7184079342       -3.0663192219
 C          6.8865481269        0.9068223904       -1.9877508600
 C          6.3912756882        0.8588711847       -0.6931068822
 C          5.0478575671        0.6190564428       -0.4735949535
 C          2.3616281371       -1.4453025401       -0.3743232755
 C          3.3649743737       -2.4024776823       -0.3698247645
 C          3.2069039566       -3.6130415818        0.2996280619
 C          2.0412611043       -3.9162490088        0.9785188300
 C          1.0166083779       -2.9777645371        0.9819449155
 C          1.1944119616       -1.7560845009        0.3028459126
 O          0.1093834213       -0.9519091419        0.4081340234
 C         -0.7925016645       -1.6357784008        1.1525807414
 C         -2.0546556504       -1.1843993079        1.5001398961
 P         -2.5113913872        0.5284536489        1.0659996555
 O         -1.8948501607        1.5200005373        1.9579985040
 C         -4.3305750822        0.5352129935        1.1225122542
 C         -4.9493084292        1.4136301483        1.9990221292
 C         -6.3304855416        1.4613259470        2.0720640227
 C         -7.0913267067        0.6316865356        1.2650786235
 C         -6.4734316405       -0.2433119981        0.3839960946
 C         -5.0941048393       -0.2926136435        0.3091523709
 C         -2.0943164648        0.7248108397       -0.6905667542
 C         -2.0601492567       -0.3278586710       -1.5942515453
 C         -1.7482056837       -0.0824475055       -2.9181661036
 C         -1.4882420431        1.2097433874       -3.3442083600
 C         -1.5376620023        2.2618569222       -2.4455792799
 C         -1.8372738822        2.0187143845       -1.1178267074
 C         -2.8364892322       -2.0332637784        2.2688961439
 C         -2.3736194036       -3.2867321666        2.6604436119
 C         -1.1134866512       -3.7336944642        2.3085363611
 C         -0.3075114789       -2.8996357646        1.5433922139
 H          1.2777213251        2.5925971549       -1.8761992931
 H          0.5064077959        4.4982933174       -0.4763558148
 H          0.6197080284        4.3243762812        1.9823678627
 H          1.5317727602        2.2972069069        3.0367078954
 H          2.3343952463        0.4305976724        1.6435731945
 H          4.0065025869        0.3282198919       -3.6700542121
 H          6.4256919371        0.7587253934       -4.0737962287
 H          7.9372104139        1.0940301847       -2.1540486631
 H          7.0560592778        1.0097863211        0.1449431828
 H          4.6516912944        0.5826616604        0.5309769874
 H          4.2861165695       -2.1951678827       -0.8955105992
 H          4.0147793502       -4.3291802353        0.2832941558
 H          1.9260879749       -4.8575397777        1.4934473822
 H         -4.3295130605        2.0488019582        2.6152792399
 H         -6.8135674109        2.1440000203        2.7556547672
 H         -8.1694891899        0.6667716894        1.3194914619
 H         -7.0709250782       -0.8871255915       -0.2449643039
 H         -4.6042238242       -0.9700004208       -0.3751847479
 H         -2.2588627823       -1.3372696967       -1.2607677881
 H         -1.6995641395       -0.9011796699       -3.6206243739
 H         -1.2390222192        1.3932745553       -4.3785814611
 H         -1.3366089048        3.2697793856       -2.7792101556
 H         -1.8607024437        2.8176245588       -0.3905604552
 H         -3.8238022773       -1.7082045573        2.5646306036
 H         -3.0151461237       -3.9189136228        3.2559266406
 H         -0.7606474810       -4.7049286575        2.6194766500
  67
       -107.68676441
 O          1.7667922174        0.1684699425       -2.6431744402
 P          2.4482287699        0.1596779090       -1.3412683973
 C          1.8421140477        1.3963324410       -0.1575511230
 C          1.3316153383        2.5644785870       -0.7033284529
 C          0.8827093004        3.5766313206        0.1249279199
 C          0.9386939011        3.4174624220        1.4991121623
 C          1.4513189293        2.2519222431        2.0444201844
 C          1.9123606297        1.2430723396        1.2199046338
 C          4.2383387437        0.4723193625       -1.4549802690
 C          4.7837477764        0.6905165556       -2.7109258327
 C          6.1375899787        0.9460470325       -2.8434677539
 C          6.9441043496        0.9857533393       -1.7181511753
 C          6.3986568163        0.7726788533       -0.4608157914
 C          5.0467922533        0.5185048304       -0.3260539322
 C          2.3340759449       -1.4547859736       -0.4969262217
 C          3.3158024553       -2.4320269933       -0.5664400456
 C          3.1327676278       -3.6856355510        0.0105401888
 C          1.9629749114       -4.0115141292        0.6715661411
 C          0.9601431768       -3.0530649289        0.7487713018
 C          1.1603411533       -1.7894551626        0.1570381977
 O          0.0906815618       -0.9745297160        0.3242579366
 C         -0.8188180405       -1.6903626877        1.0276733992
 C         -2.0678610980       -1.2356637062        1.4168572030
 P         -2.4746452199        0.5063958247        1.0562267612
 O         -1.7683244020        1.4503891548        1.9322046270
 C         -4.2851501395        0.5955463004        1.2142301892
 C         -5.1358928573       -0.1625173981        0.4197772189
 C         -6.5042118885       -0.0502104330        0.5814134395
 C         -7.0240475153        0.8179611217        1.5299022509
 C         -6.1760372952        1.5787271239        2.3177036150
 C         -4.8059776703        1.4680108585        2.1580264241
 C         -2.1284086129        0.7092848151       -0.7154941861
 C         -2.1718504817       -0.3370950056       -1.6262381342
 C         -1.8858578219       -0.0977086382       -2.9572526680
 C         -1.5724168972        1.1829058217       -3.3825359547
 C         -1.5464372738        2.2296896328       -2.4766991455
 C         -1.8219645474        1.9922762451       -1.1425553163
 C         -2.8616323787       -2.1159268098        2.1358409964
 C         -2.4223371896       -3.4028491353        2.4367688619
 C         -1.1767626407       -3.8535789080        2.0404171178
 C         -0.3579118333       -2.9873688490        1.3259451488
 H          1.2808059061        2.6530384537       -1.7791358410
 H          0.4838886375        4.4869001979       -0.2998171732
 H          0.5741265366        4.1985927372        2.1492289963
 H          1.4839006072        2.1279511383        3.1165929677
 H          2.3078286816        0.3313452265        1.6463298178
 H          4.1300552216        0.6539191422       -3.5703404898
 H          6.5640421481        1.1134948178       -3.8216588921
 H          8.0009240475        1.1850510886       -1.8182991151
 H          7.0308978074        0.8061778693        0.4145906190
 H          4.6129439167        0.3548728030        0.6496809747
 H          4.2403003366       -2.2055084135       -1.0782710910
 H          3.9235483206       -4.4169715793       -0.0641623406
 H          1.8276212972       -4.9854721463        1.1160315300
 H         -4.7224936879       -0.8345577234       -0.3182999519
 H         -7.1695526281       -0.6414212747       -0.0307739250
 H         -8.0939245859        0.9001030473        1.6536365220
 H         -6.5826280454        2.2550670815        3.0552923508
 H         -4.1192672630        2.0481349128        2.7574253959
 H         -2.4097920481       -1.3382177088       -1.2928178456
 H         -1.8994121881       -0.9130143889       -3.6656815337
 H         -1.3428949537        1.3615090613       -4.4222298153
 H         -1.3061009288        3.2287579667       -2.8105463567
 H         -1.7876627384        2.7861868011       -0.4103655513
 H         -3.8396028776       -1.7918054129        2.4619078996
 H         -3.0720678022       -4.0595695835        2.9957125245
 H         -0.8447800233       -4.8522311131        2.2791239410
  67
       -107.68633160
 O          4.2782542794       -0.2089178761       -2.2841294734
 P          2.8972439379       -0.2219988585       -1.7725115612
 C          1.6760844764        0.1877279636       -3.0634416086
 C          0.4258343307       -0.4036198908       -3.1614291553
 C         -0.4026752282       -0.0832706495       -4.2223648004
 C          0.0004553935        0.8432158083       -5.1695859609
 C          1.2431923012        1.4467690345       -5.0652800439
 C          2.0833614637        1.1088507258       -4.0205849522
 C          2.6528056308        0.9333798435       -0.3880797129
 C          3.0840458742        0.5515494943        0.8744341393
 C          3.0127780225        1.4450107021        1.9259057523
 C          2.5293432074        2.7252097413        1.7125851787
 C          2.1153582153        3.1104061379        0.4493948706
 C          2.1709840248        2.2140283390       -0.6038833807
 C          2.4049807180       -1.8545288945       -1.1363548290
 C          3.1353392007       -2.9728670580       -1.5114223518
 C          2.8237789785       -4.2431350762       -1.0382889740
 C          1.7740534773       -4.4384087585       -0.1603214841
 C          1.0320426993       -3.3335817146        0.2393537539
 C          1.3504348099       -2.0531518365       -0.2585232832
 O          0.5228419447       -1.0975090347        0.2397839991
 C         -0.3189341450       -1.7357918325        1.0866222005
 C         -1.3075477239       -1.1254470426        1.8413033149
 P         -1.3559723643        0.6956677444        1.7726201792
 O         -0.1388569158        1.3186286211        2.3032037152
 C         -2.8564031242        1.1666004771        2.6886573759
 C         -2.6737687214        1.9018969077        3.8509076258
 C         -3.7666360940        2.2891556205        4.6058881264
 C         -5.0435938159        1.9432843464        4.1957458822
 C         -5.2279506602        1.2141425990        3.0308911460
 C         -4.1376200872        0.8248855214        2.2747612460
 C         -1.7077237864        1.0820354444        0.0318008780
 C         -2.5041148947        0.2809739542       -0.7750408246
 C         -2.7942727145        0.6845872489       -2.0651809808
 C         -2.2785724283        1.8739243364       -2.5558867245
 C         -1.4664946328        2.6619012161       -1.7575653732
 C         -1.1896601150        2.2701577332       -0.4604533365
 C         -2.0732863966       -1.9445713669        2.6566729315
 C         -1.8588862183       -3.3200563905        2.6999421018
 C         -0.8664701553       -3.9227831579        1.9493885730
 C         -0.0787308827       -3.1217029472        1.1313128566
 H          0.1023888677       -1.1178708660       -2.4197853784
 H         -1.3643573355       -0.5654495227       -4.3155767095
 H         -0.6511163104        1.0888641318       -5.9954665893
 H          1.5605061523        2.1679175464       -5.8043477248
 H          3.0720365680        1.5378438811       -3.9378990016
 H          3.4727748524       -0.4480386762        1.0219005060
 H          3.3305458366        1.1443661056        2.9130729873
 H          2.4707960905        3.4219847321        2.5349378975
 H          1.7457689085        4.1130191326        0.2842563522
 H          1.8367845950        2.5006578748       -1.5919962654
 H          3.9710975009       -2.8232381233       -2.1789874073
 H          3.4185610200       -5.0858833055       -1.3565701060
 H          1.5374702171       -5.4215179605        0.2165877301
 H         -1.6663614777        2.1599228973        4.1438608499
 H         -3.6242003634        2.8595202153        5.5118323880
 H         -5.8992427788        2.2434806789        4.7825180596
 H         -6.2256681889        0.9493859935        2.7119893307
 H         -4.2783012873        0.2604884722        1.3643992717
 H         -2.8876458500       -0.6572054408       -0.3960396533
 H         -3.4270488976        0.0710763265       -2.6906055173
 H         -2.5089217744        2.1850886504       -3.5640821252
 H         -1.0589532416        3.5842816230       -2.1452062119
 H         -0.5655572763        2.8655101966        0.1894620743
 H         -2.8468720341       -1.5026426576        3.2683572376
 H         -2.4787861739       -3.9248772124        3.3447121313
 H         -0.7005577044       -4.9878378262        1.9997232168
  67
       -107.68620486
 O          4.1134166589       -0.5364898935       -2.8094802826
 P          3.1125436702       -0.3240066471       -1.7513446063
 C          1.5536031195        0.3874488722       -2.3699849309
 C          0.6806900174       -0.4520355582       -3.0472139385
 C         -0.4530251747        0.0670741754       -3.6434446772
 C         -0.7106523766        1.4259314638       -3.5677119825
 C          0.1552534404        2.2617347658       -2.8838259254
 C          1.2922272452        1.7456028078       -2.2880042572
 C          3.6939923680        0.7222310516       -0.3841891554
 C          5.0571243409        0.9783550556       -0.3225096102
 C          5.5724817313        1.7403203603        0.7106725039
 C          4.7232210733        2.2446152626        1.6825508333
 C          3.3620959154        1.9892641604        1.6185312463
 C          2.8402394209        1.2263033078        0.5894526830
 C          2.6231957003       -1.8831747976       -0.9456172959
 C          3.4268331057       -3.0040736463       -1.0905314973
 C          3.1268838133       -4.2065945770       -0.4583535130
 C          2.0121220408       -4.3279307681        0.3494711690
 C          1.1886901996       -3.2195591639        0.5093779133
 C          1.5009672417       -2.0101279227       -0.1426746588
 O          0.5834952811       -1.0457455438        0.1181297678
 C         -0.3216525075       -1.5987898436        0.9557937109
 C         -1.4277364060       -0.9557094805        1.4928192479
 P         -1.6865174618        0.7966871192        1.0550365144
 O         -0.4572791089        1.5995747987        1.0528371620
 C         -2.9376273427        1.3992628711        2.2300039218
 C         -2.5179757274        2.2623346719        3.2313994443
 C         -3.4299547476        2.7545076459        4.1483486650
 C         -4.7617185443        2.3831779660        4.0618566885
 C         -5.1836764985        1.5254884166        3.0573168833
 C         -4.2749376035        1.0329736847        2.1388168538
 C         -2.5806337049        0.7675360792       -0.5331959946
 C         -2.9572383574       -0.3915239007       -1.1924286080
 C         -3.6993933798       -0.3060036283       -2.3582567028
 C         -4.0730806077        0.9305268528       -2.8566113421
 C         -3.6901663963        2.0907609760       -2.2009134596
 C         -2.9414504181        2.0081299901       -1.0425959444
 C         -2.2366058412       -1.7023844834        2.3387317357
 C         -1.9531828866       -3.0342577926        2.6253436141
 C         -0.8510170311       -3.6709358715        2.0856206610
 C         -0.0193035176       -2.9454674276        1.2427030879
 H          0.9061860819       -1.5091477420       -3.1096428835
 H         -1.1332429488       -0.5830288068       -4.1746149329
 H         -1.5884448311        1.8332169482       -4.0464583966
 H         -0.0526938443        3.3197006916       -2.8205137042
 H          1.9788926537        2.3920640975       -1.7610163646
 H          5.6948380096        0.5786733426       -1.0975348223
 H          6.6327784647        1.9413666325        0.7583003949
 H          5.1231068268        2.8417959629        2.4893058478
 H          2.6983537045        2.3885733842        2.3708980076
 H          1.7789917887        1.0414520165        0.5365293976
 H          4.2986302336       -2.9167507016       -1.7221303770
 H          3.7795147725       -5.0547180086       -0.6000937130
 H          1.7815900886       -5.2578236556        0.8461536311
 H         -1.4749346949        2.5423739158        3.2691952145
 H         -3.1046367774        3.4273212108        4.9279063591
 H         -5.4761513824        2.7670537419        4.7751203458
 H         -6.2242052178        1.2434112988        2.9895129262
 H         -4.5972064927        0.3727535357        1.3450493269
 H         -2.6755910656       -1.3563514504       -0.7935315193
 H         -3.9953750713       -1.2084405337       -2.8734782544
 H         -4.6641834263        0.9909059715       -3.7588273834
 H         -3.9804608101        3.0553922831       -2.5914330559
 H         -2.6267666352        2.8981456041       -0.5142106143
 H         -3.1019612326       -1.2358038258        2.7854761100
 H         -2.6109045993       -3.5773708114        3.2871731753
 H         -0.6366877197       -4.7035477147        2.3137767212
  67
       -107.68604176
 O          1.3954693764        0.3274519390       -2.3481966572
 P          2.3342472928        0.2217781593       -1.2247813099
 C          2.0093203009        1.3631586606        0.1507345202
 C          1.3949245468        2.5647147076       -0.1671450425
 C          1.1200137899        3.4848642205        0.8276441564
 C          1.4612675382        3.2037989813        2.1398671789
 C          2.0795650293        2.0052844299        2.4569459005
 C          2.3581784402        1.0839110258        1.4646489553
 C          4.0625087463        0.5113901298       -1.7109616835
 C          4.3138886947        0.7339689820       -3.0566193415
 C          5.6065419461        0.9680339618       -3.4906599889
 C          6.6468668111        0.9810095232       -2.5763623782
 C          6.3956827088        0.7644583515       -1.2297233340
 C          5.1047394552        0.5318324936       -0.7930112482
 C          2.3270305399       -1.4272677043       -0.4440824038
 C          3.3063111713       -2.4038122484       -0.5329868833
 C          3.1295975520       -3.6535754438        0.0570896381
 C          1.9745853215       -3.9758518552        0.7458804338
 C          0.9726726681       -3.0170412653        0.8413342845
 C          1.1704172654       -1.7586412327        0.2421637438
 O          0.1114246891       -0.9344778936        0.4195279390
 C         -0.8012065767       -1.6454722127        1.1254062474
 C         -2.0573358722       -1.1968036336        1.4968670659
 P         -2.5260897626        0.5235968325        1.1026637026
 O         -1.9762384667        1.5025685719        2.0506057490
 C         -4.3469273319        0.4912562112        1.0591882617
 C         -5.0331457479        1.4272905487        1.8177001402
 C         -6.4163326029        1.4667255963        1.7856575899
 C         -7.1126799984        0.5704697933        0.9919383446
 C         -6.4276205957       -0.3645950944        0.2304975592
 C         -5.0464617541       -0.4043090370        0.2597979188
 C         -2.0491504722        0.7832873391       -0.6301927943
 C         -2.0366454081       -0.2293207425       -1.5793937204
 C         -1.7044607302        0.0639426739       -2.8880176178
 C         -1.4011883713        1.3647652434       -3.2547008169
 C         -1.4236645662        2.3765394699       -2.3103909087
 C         -1.7451768872        2.0853784324       -0.9972277052
 C         -2.8482617808       -2.0739278684        2.2238245115
 C         -2.4028898620       -3.3530798275        2.5458362401
 C         -1.1559204418       -3.8038992928        2.1535877310
 C         -0.3397502952       -2.9420942736        1.4313795267
 H          1.1279695412        2.7507338486       -1.1973153191
 H          0.6367582306        4.4196741341        0.5836191482
 H          1.2388895611        3.9158338842        2.9205775704
 H          2.3380029652        1.7858001331        3.4829263764
 H          2.8283522734        0.1417607037        1.7131998895
 H          3.4809910862        0.7192274125       -3.7447728812
 H          5.8035569604        1.1402975598       -4.5385795423
 H          7.6574481233        1.1625992923       -2.9116131610
 H          7.2102599904        0.7783532425       -0.5202200773
 H          4.9003219834        0.3668386097        0.2550552438
 H          4.2196425633       -2.1863145625       -1.0679887523
 H          3.9167524208       -4.3874893561       -0.0307042433
 H          1.8501704449       -4.9482872799        1.1969852903
 H         -4.4639433202        2.1132299765        2.4282150869
 H         -6.9513066010        2.1951744621        2.3772123346
 H         -8.1920649212        0.5991430037        0.9641491621
 H         -6.9739793182       -1.0614133344       -0.3885097197
 H         -4.5067647714       -1.1278018352       -0.3334003905
 H         -2.2637738983       -1.2470390352       -1.2920151553
 H         -1.6719375259       -0.7252581207       -3.6245742679
 H         -1.1349202142        1.5857870632       -4.2773361844
 H         -1.1838731176        3.3907899200       -2.5971938755
 H         -1.7498005084        2.8515989353       -0.2349493986
 H         -3.8309927555       -1.7515755335        2.5373234911
 H         -3.0509320839       -4.0059343697        3.1112650539
 H         -0.8219618172       -4.8000459660        2.3999915364
