  94
  -142.703188730000       0.198911256722055      !
 O         -3.8295282845        2.2448624858        2.5381087387
 C         -2.5841653391        1.9699220753        2.0636551373
 C         -1.4658980040        2.6727330679        2.4935062189
 C         -0.2050028824        2.3438032247        2.0401337717
 C         -0.0182103272        1.2889058563        1.1449132819
 C          1.3172006032        0.9362214169        0.6694877952
 C          2.4372637473        1.0505744359        1.5037692433
 C          3.6932122630        0.7329799605        1.0575004636
 C          3.9169025792        0.3114524690       -0.2736346007
 C          5.2248445563       -0.0154019784       -0.7145913669
 C          6.2434444636       -0.3583694168        0.2944264640
 C          7.4263255056        0.4384701333        0.3478787807
 C          7.4139816585        1.7609150954       -0.1422804577
 C          8.5511556917        2.5344537031       -0.1271541726
 C          9.7474437268        2.0193113556        0.3560761678
 C          9.7898058910        0.7094024556        0.8144515919
 C          8.6554336432       -0.0707302452        0.8144572016
 C          5.9945312239       -1.4725841533        1.1503077997
 C          5.0949413708       -2.4849811959        0.7559512795
 C          4.8217486434       -3.5522577216        1.5795252745
 C          5.4142474507       -3.6451378472        2.8325988698
 C          6.2776107246       -2.6427809486        3.2546407636
 C          6.5675072540       -1.5756009216        2.4347492276
 C          5.6279010131       -0.0257449584       -2.0888065842
 C          6.7128333558       -0.8230258098       -2.5024650556
 C          7.1395923312       -0.8180577215       -3.8107185078
 C          6.5171983085       -0.0074852362       -4.7510415509
 C          5.4655697170        0.8084792250       -4.3578819005
 C          5.0239037097        0.8036183536       -3.0532249128
 C          2.7781415629        0.1724688922       -1.0993465693
 C          1.5222248965        0.4676875282       -0.6344081001
 C         -1.1451792551        0.5942516881        0.7101472682
 C         -2.4217517808        0.9281790962        1.1385146869
 C         -3.5521571921        0.1481345853        0.6501021755
 N         -3.5602861169       -1.1577382165        0.5783484678
 C         -4.7839246647       -1.5211636479        0.0991763501
 C         -5.1023428318       -2.9223702888       -0.1282572985
 C         -6.0461565382       -3.3249802938       -1.0714442384
 C         -6.3188862991       -4.6676430978       -1.2536854962
 C         -5.6520387411       -5.6263494127       -0.5085081272
 C         -4.6969072876       -5.2347540848        0.4157385018
 C         -4.4213812229       -3.8946025548        0.6036691727
 C         -5.5449521927       -0.3854591897       -0.1242794407
 C         -6.9032805328       -0.2158332864       -0.6237951426
 C         -7.1780927738        0.6700165679       -1.6640187943
 C         -8.4729970557        0.8280629957       -2.1214859914
 C         -9.5080408638        0.1074728037       -1.5497070459
 C         -9.2417877056       -0.7797616061       -0.5188866999
 C         -7.9501076643       -0.9414551859       -0.0565759735
 N         -4.7396450583        0.6768592456        0.2214614699
 C         -5.0663799811        2.0376757623        0.1187827150
 C         -4.1881191077        2.9068333681       -0.5189098936
 C         -4.5034369724        4.2494083138       -0.6197357497
 C         -5.6942457514        4.7270586215       -0.0989001036
 C         -6.5694934040        3.8583212816        0.5321497270
 C         -6.2601488704        2.5162997217        0.6466083939
 H         -3.7844588665        2.9416653116        3.2054019824
 H         -1.5908415229        3.4846972889        3.1983605651
 H          0.6427318778        2.9232943654        2.3728153367
 H          2.3040862668        1.3700886139        2.5269143913
 H          4.5399716540        0.8310175123        1.7203007082
 H          6.4848730124        2.1717020305       -0.5082726391
 H          8.5135213267        3.5501437896       -0.4940244810
 H         10.6390870287        2.6276313773        0.3634253542
 H         10.7234664821        0.2939405088        1.1660491193
 H          8.7147047559       -1.1027748841        1.1254001649
 H          4.6393808454       -2.4256243685       -0.2211190911
 H          4.1408849649       -4.3233337412        1.2489584887
 H          5.1954873686       -4.4821908984        3.4780082124
 H          6.7196738196       -2.6948917779        4.2394774711
 H          7.1995105337       -0.7783732088        2.7958514431
 H          7.1949479104       -1.4638505643       -1.7792540506
 H          7.9652059016       -1.4487851792       -4.1074751865
 H          6.8562830662       -0.0025479917       -5.7758469402
 H          4.9939372330        1.4613128910       -5.0786233932
 H          4.2394249035        1.4806809992       -2.7508375446
 H          2.8973459016       -0.2217442309       -2.0969987714
 H          0.6744457334        0.3521077685       -1.2934447427
 H         -1.0463016688       -0.2466432317        0.0424112570
 H         -6.5576050777       -2.5868608664       -1.6702042666
 H         -7.0539234991       -4.9689989378       -1.9864715602
 H         -5.8711215725       -6.6742155623       -0.6533084338
 H         -4.1665666330       -5.9793242296        0.9919883224
 H         -3.6772273041       -3.5735359999        1.3156485553
 H         -6.3732050519        1.2270238355       -2.1217344866
 H         -8.6744853285        1.5169538730       -2.9288121854
 H        -10.5188549353        0.2345426374       -1.9076518297
 H        -10.0459356620       -1.3457027692       -0.0718181002
 H         -7.7378860012       -1.6311989193        0.7470674431
 H         -3.2644353917        2.5267872472       -0.9304465503
 H         -3.8176418147        4.9225111037       -1.1127151894
 H         -5.9389523262        5.7751706136       -0.1834626842
 H         -7.4968431894        4.2282840764        0.9432029663
 H         -6.9306397260        1.8385463826        1.1520027332
  94
  -142.703162900000       0.193548012128432      !
 O         -3.8454752786        2.2652159276        2.5399843480
 C         -2.5978826427        2.0187200484        2.0555890387
 C         -1.4896888885        2.7317422752        2.4952764252
 C         -0.2236017398        2.4274504687        2.0391722175
 C         -0.0222170723        1.3897395036        1.1272137527
 C          1.3174289470        1.0498985100        0.6550014424
 C          2.4304751755        1.1411697303        1.5015521536
 C          3.6867138172        0.8106191307        1.0653173454
 C          3.9186406191        0.3978187470       -0.2675292411
 C          5.2181249015        0.0280310595       -0.6988737732
 C          6.2172332156       -0.3746197658        0.3043140920
 C          7.4825805807        0.2892819574        0.2920200380
 C          7.5991086203        1.5923821408       -0.2337175192
 C          8.8173673180        2.2285635526       -0.2915214443
 C          9.9680899323        1.5893004934        0.1525000722
 C          9.8804936905        0.2959603830        0.6499543046
 C          8.6647983791       -0.3460337606        0.7236236379
 C          5.8836555565       -1.4155901251        1.2206803003
 C          4.8685365175       -2.3458448547        0.9115602235
 C          4.5115749204       -3.3299836861        1.8035661005
 C          5.1356645130       -3.4201131762        3.0415127586
 C          6.1197006289       -2.4992862036        3.3775844242
 C          6.4917352235       -1.5154270563        2.4900830462
 C          5.6227430229        0.0225701794       -2.0741614972
 C          6.6551328311       -0.8298808679       -2.5102655600
 C          7.0832458011       -0.8147921697       -3.8181420425
 C          6.5144279268        0.0593020486       -4.7352082877
 C          5.5135313854        0.9266059022       -4.3197608320
 C          5.0705879461        0.9121195124       -3.0157655309
 C          2.7879358784        0.3002448262       -1.1115215478
 C          1.5316099657        0.6061415747       -0.6564671013
 C         -1.1396582710        0.6885141958        0.6785931419
 C         -2.4213256660        0.9948767344        1.1130319926
 C         -3.5342796595        0.1933587368        0.6204018651
 N         -3.4939899807       -1.1099969339        0.5139778092
 C         -4.7119891122       -1.5087161456        0.0497301856
 C         -4.9790541054       -2.9151789556       -0.2095292021
 C         -4.2383033981       -3.8778176620        0.4757276286
 C         -4.4620160174       -5.2226756403        0.2554952563
 C         -5.4247388347       -5.6285619208       -0.6546597102
 C         -6.1516363761       -4.6785555981       -1.3533847611
 C         -5.9305097885       -3.3310984059       -1.1391307932
 C         -5.5209303318       -0.3981995067       -0.1279775443
 C         -6.8952822474       -0.2708253990       -0.5953866994
 C         -7.2269626344        0.6266710897       -1.6088142315
 C         -8.5364188590        0.7435546229       -2.0358620449
 C         -9.5298437029       -0.0308668829       -1.4607146714
 C         -9.2069832752       -0.9300210893       -0.4568136038
 C         -7.9004763625       -1.0501972783       -0.0243988017
 N         -4.7500978741        0.6859212612        0.2294212080
 C         -5.1305267110        2.0347698706        0.1585384202
 C         -4.2974934972        2.9487334186       -0.4772785382
 C         -4.6679847342        4.2788715312       -0.5517050751
 C         -5.8694109517        4.6996609662       -0.0066872775
 C         -6.6992104729        3.7865086095        0.6231174085
 C         -6.3342884993        2.4565422081        0.7116708409
 H         -3.8093221131        2.9547538653        3.2155136646
 H         -1.6269336981        3.5305193784        3.2128331494
 H          0.6162954269        3.0117862011        2.3831642304
 H          2.2902974572        1.4500642394        2.5270726712
 H          4.5267631260        0.8885694992        1.7390741305
 H          6.7075114045        2.1006982293       -0.5692225678
 H          8.8793025347        3.2327199243       -0.6858490288
 H         10.9235782363        2.0887764275        0.1004727720
 H         10.7755225366       -0.2165387393        0.9730888240
 H          8.6188259476       -1.3694667289        1.0644785753
 H          4.3877799908       -2.2927818058       -0.0534638626
 H          3.7393819274       -4.0378879786        1.5388407426
 H          4.8506105994       -4.1914754327        3.7405696421
 H          6.5918837275       -2.5486902631        4.3485077164
 H          7.2215229812       -0.7761917106        2.7842828606
 H          7.0941682773       -1.5214141082       -1.8066830342
 H          7.8677774338       -1.4878895294       -4.1327648660
 H          6.8552202631        0.0723644532       -5.7593394142
 H          5.0839625875        1.6270490900       -5.0218856213
 H          4.3275526162        1.6260437698       -2.6941587121
 H          2.9136571885       -0.0757785970       -2.1154280850
 H          0.6898153968        0.5154396384       -1.3269140669
 H         -1.0281497013       -0.1400749232       -0.0023154018
 H         -3.4887653411       -3.5454309574        1.1767005420
 H         -3.8844960964       -5.9599586099        0.7945213164
 H         -5.6027436701       -6.6803874138       -0.8250458447
 H         -6.8930736374       -4.9901494964       -2.0755475184
 H         -6.4883614528       -2.5991047521       -1.7030255540
 H         -6.4543425651        1.2245550902       -2.0705308485
 H         -8.7817554440        1.4411626799       -2.8233335896
 H        -10.5520642772        0.0638891360       -1.7950594544
 H         -9.9784134887       -1.5369074870       -0.0061664062
 H         -7.6449361510       -1.7481644472        0.7591824589
 H         -3.3655534462        2.6125923340       -0.9080034740
 H         -4.0172755010        4.9868077118       -1.0434174665
 H         -6.1577488809        5.7380530122       -0.0714220682
 H         -7.6344203032        4.1121474594        1.0533109400
 H         -6.9690677675        1.7448234470        1.2164023806
  94
  -142.703111510000       0.183303816099480      !
 O         -3.8540246762        2.2101452108        2.5872379995
 C         -2.6040177482        1.9769618218        2.1025207625
 C         -1.5025637045        2.7004336357        2.5421561272
 C         -0.2347685825        2.4132119987        2.0795720561
 C         -0.0245629260        1.3813276881        1.1630237123
 C          1.3151882011        1.0624830704        0.6775989345
 C          2.4360825857        1.1707367118        1.5114722854
 C          3.6909569814        0.8527759886        1.0624512111
 C          3.9128472851        0.4342568741       -0.2703635094
 C          5.2086574942        0.0582545194       -0.7095760998
 C          6.2054853988       -0.3551252808        0.2902673815
 C          7.4917154245        0.2663035075        0.2572442163
 C          7.6506998130        1.5545692447       -0.2931382107
 C          8.8904018651        2.1458805997       -0.3691403262
 C         10.0204853031        1.4744759290        0.0802267915
 C          9.8904024347        0.1944906248        0.6025792627
 C          8.6532961656       -0.4021844416        0.6950921829
 C          5.8467417446       -1.3622442085        1.2353220681
 C          4.8065730383       -2.2738693366        0.9561806211
 C          4.4214996760       -3.2166609186        1.8806575903
 C          5.0417069511       -3.2821169290        3.1220169666
 C          6.0529196749       -2.3802015708        3.4271862621
 C          6.4537393402       -1.4387967476        2.5068903727
 C          5.6029119028        0.0493527995       -2.0874426398
 C          6.6273840247       -0.8084898944       -2.5321630930
 C          7.0457662641       -0.7946951801       -3.8431359128
 C          6.4742527376        0.0823298374       -4.7556462503
 C          5.4798881110        0.9535098287       -4.3325456236
 C          5.0469867514        0.9409845316       -3.0252430151
 C          2.7755606275        0.3291409133       -1.1043957806
 C          1.5211060656        0.6228372670       -0.6367426328
 C         -1.1349679729        0.6664271121        0.7182018079
 C         -2.4182656073        0.9576590044        1.1569385215
 C         -3.5272570987        0.1565392631        0.6541158666
 N         -3.4955684727       -1.1467671032        0.5469706965
 C         -4.7080017911       -1.5342964601        0.0585902960
 C         -4.9823677123       -2.9372406268       -0.2120513747
 C         -5.9122730308       -3.3388918287       -1.1693751929
 C         -6.1426073464       -4.6828783275       -1.3951901010
 C         -5.4460252172       -5.6436570527       -0.6805737734
 C         -4.5041503549       -5.2521119766        0.2572808493
 C         -4.2714211202       -3.9107255146        0.4891724415
 C         -5.5041371281       -0.4167436931       -0.1326797012
 C         -6.8681142978       -0.2750576700       -0.6248635638
 C         -7.1739235618        0.6361690095       -1.6342241425
 C         -8.4745973567        0.7696442165       -2.0828235032
 C         -9.4848671247       -0.0021267048       -1.5338741607
 C         -9.1874000118       -0.9160387614       -0.5354044264
 C         -7.8899185326       -1.0525364794       -0.0812204994
 N         -4.7310535816        0.6598905915        0.2412766774
 C         -5.0987271796        2.0124107808        0.1726076504
 C         -4.2499297018        2.9221564258       -0.4480532508
 C         -4.6067358452        4.2563310119       -0.5175650638
 C         -5.8097352417        4.6851563642        0.0175197418
 C         -6.6553573138        3.7760068117        0.6319503228
 C         -6.3044122549        2.4419921383        0.7153087528
 H         -3.8239049044        2.8947689441        3.2680899876
 H         -1.6464741997        3.4947177191        3.2633098519
 H          0.5992001226        3.0073453084        2.4212025163
 H          2.3037462373        1.4813039870        2.5374930798
 H          4.5371007292        0.9439988416        1.7267129476
 H          6.7757576781        2.0881562577       -0.6329468965
 H          8.9854970505        3.1399023534       -0.7820267294
 H         10.9926929700        1.9386581482        0.0132764874
 H         10.7685659195       -0.3432770104        0.9306603424
 H          8.5721703340       -1.4161640885        1.0570843897
 H          4.3284679763       -2.2410405876       -0.0109811711
 H          3.6300108466       -3.9112128407        1.6388999273
 H          4.7335815786       -4.0200187186        3.8469980641
 H          6.5227111828       -2.4096830271        4.4000438512
 H          7.2044778417       -0.7111092038        2.7760911822
 H          7.0680860866       -1.5027372528       -1.8325261865
 H          7.8250864330       -1.4709100887       -4.1638348898
 H          6.8079478542        0.0945768614       -5.7821461397
 H          5.0472977950        1.6550260586       -5.0317015537
 H          4.3083024921        1.6572202889       -2.6981688286
 H          2.8947807962       -0.0452367311       -2.1097160343
 H          0.6739307159        0.5261373641       -1.2995563407
 H         -1.0161437394       -0.1589285945        0.0345484607
 H         -6.4467264093       -2.5984141731       -1.7446354450
 H         -6.8677030826       -4.9832182802       -2.1381943033
 H         -5.6313087417       -6.6927111096       -0.8598738451
 H         -3.9514251866       -5.9980688288        0.8104739579
 H         -3.5384729207       -3.5897593942        1.2128504061
 H         -6.3881456913        1.2323031024       -2.0756018247
 H         -8.6996334013        1.4785350729       -2.8663186929
 H        -10.5002259733        0.1052097525       -1.8853162541
 H         -9.9719991651       -1.5214523197       -0.1057752864
 H         -7.6542120985       -1.7618984500        0.6982886812
 H         -3.3167128269        2.5799432387       -0.8711554013
 H         -3.9438080418        4.9611088343       -0.9973108034
 H         -6.0871487767        5.7267593218       -0.0430782616
 H         -7.5920891296        4.1079236250        1.0540189460
 H         -6.9515214331        1.7325739611        1.2075505961
  94
  -142.702894720000       0.145727569133910      !
 O         -3.8238028419        2.4444598104        2.4183723832
 C         -2.5750469020        2.1972302177        1.9366438888
 C         -1.4752082007        2.9420600780        2.3431828291
 C         -0.2063180647        2.6373760244        1.8933408531
 C          0.0012257350        1.5746549660        1.0141924736
 C          1.3425740526        1.2272205956        0.5480935159
 C          2.4412115717        1.2689128730        1.4147954856
 C          3.6926798968        0.9032142066        0.9909597180
 C          3.9313085023        0.5172356348       -0.3469235869
 C          5.2256099934        0.0946638903       -0.7565455977
 C          6.1371592246       -0.4429122322        0.2683482700
 C          7.4173734479        0.1671518236        0.4236804067
 C          7.6250877096        1.5003504681        0.0124085726
 C          8.8609199082        2.0936301598        0.1245706077
 C          9.9414109211        1.3815456100        0.6301304733
 C          9.7668308243        0.0579888949        1.0124587591
 C          8.5321893407       -0.5429448174        0.9155345807
 C          5.6867653091       -1.5544902322        1.0431050222
 C          4.6797899369       -2.4080339443        0.5457633425
 C          4.2079199062       -3.4614967760        1.2936643413
 C          4.7042295714       -3.6979457740        2.5694526087
 C          5.6762872219       -2.8539601620        3.0899336556
 C          6.1633937770       -1.8022993113        2.3468468233
 C          5.6867306592        0.1422218697       -2.1087567534
 C          6.7165908435       -0.7169408494       -2.5420039567
 C          7.1981279814       -0.6547097350       -3.8292051557
 C          6.6881496392        0.2733131424       -4.7282737739
 C          5.6915055914        1.1467082535       -4.3145514192
 C          5.1948740884        1.0867388893       -3.0316552163
 C          2.8184670767        0.4882459177       -1.2159697597
 C          1.5627064471        0.8162835857       -0.7712453816
 C         -1.1062228437        0.8415603712        0.5966572273
 C         -2.3890275910        1.1394841657        1.0342993161
 C         -3.4854082850        0.2836668431        0.6004236604
 N         -3.3997467555       -1.0210995086        0.5574512542
 C         -4.6137170813       -1.4862655818        0.1480451920
 C         -4.8300879861       -2.9132008158       -0.0342816931
 C         -4.0156385249       -3.8084120318        0.6590567478
 C         -4.1847750463       -5.1707264503        0.5100893551
 C         -5.1662834038       -5.6621394489       -0.3356152919
 C         -5.9671802263       -4.7798292025       -1.0418922828
 C         -5.8007728277       -3.4150359029       -0.8992506841
 C         -5.4674068328       -0.4154039243       -0.0614600203
 C         -6.8596729455       -0.3624390602       -0.4887930817
 C         -7.2575439139        0.4604630636       -1.5405465257
 C         -8.5843173854        0.5056570120       -1.9268488880
 C         -9.5286905997       -0.2667815915       -1.2721111390
 C         -9.1396833256       -1.0921026252       -0.2287426315
 C         -7.8160162706       -1.1404201797        0.1630198273
 N         -4.7278958093        0.7125051835        0.2192207768
 C         -5.1542287833        2.0424172410        0.0829868775
 C         -4.3631582056        2.9445101915       -0.6200225053
 C         -4.7777636894        4.2558572537       -0.7619503484
 C         -5.9822760325        4.6690323391       -0.2177393224
 C         -6.7695084788        3.7680041831        0.4802354791
 C         -6.3599211461        2.4572925672        0.6367333964
 H         -3.7931539334        3.1562705958        3.0706578099
 H         -1.6198844329        3.7636614045        3.0329681161
 H          0.6301763340        3.2387280527        2.2163772669
 H          2.2904516411        1.5618018128        2.4436629762
 H          4.5241683466        0.9309276934        1.6794996322
 H          6.7871401051        2.0636179054       -0.3704316263
 H          8.9922200537        3.1208940871       -0.1839024686
 H         10.9111029597        1.8484253398        0.7130310735
 H         10.6095031883       -0.5095852056        1.3809629428
 H          8.4225002538       -1.5866473628        1.1686235451
 H          4.2977944060       -2.2398093123       -0.4498183209
 H          3.4451427964       -4.1087623399        0.8854863848
 H          4.3294164931       -4.5233395423        3.1553940992
 H          6.0475391966       -3.0168313952        4.0917736630
 H          6.8797464037       -1.1234554864        2.7843801457
 H          7.1100235131       -1.4487252398       -1.8523826936
 H          7.9788254284       -1.3327685388       -4.1427275966
 H          7.0695245553        0.3207737426       -5.7370105831
 H          5.3081678841        1.8880522482       -5.0012856182
 H          4.4539526006        1.8027420805       -2.7093907826
 H          2.9517832956        0.1407190987       -2.2292360236
 H          0.7273044479        0.7690846433       -1.4545170530
 H         -0.9827658307       -0.0074789977       -0.0567145349
 H         -3.2530095747       -3.4094284491        1.3093835751
 H         -3.5502763686       -5.8548379602        1.0552284301
 H         -5.3019146447       -6.7277654679       -0.4498549184
 H         -6.7245342444       -5.1582177949       -1.7136892079
 H         -6.4174577951       -2.7368871283       -1.4689962008
 H         -6.5234695361        1.0564613580       -2.0635855822
 H         -8.8810577335        1.1450073767       -2.7454653569
 H        -10.5645638134       -0.2285065309       -1.5746792700
 H         -9.8731522151       -1.6968772187        0.2841445520
 H         -7.5079219572       -1.7810439536        0.9761620180
 H         -3.4293134018        2.6132514620       -1.0505224600
 H         -4.1600065136        4.9545477929       -1.3065486906
 H         -6.3051459555        5.6925591435       -0.3351230085
 H         -7.7069712595        4.0879042066        0.9099755666
 H         -6.9630835368        1.7558204859        1.1921298376
  94
  -142.702887190000       0.144570995706062      !
 O         -3.8139267786        2.4426475199        2.4547554477
 C         -2.5696944914        2.2137362777        1.9528307722
 C         -1.4720100630        2.9655269677        2.3532823289
 C         -0.2050653208        2.6759864176        1.8886858539
 C          0.0038283627        1.6200123246        1.0012072180
 C          1.3438614705        1.2751909019        0.5306302120
 C          2.4462049331        1.3293712720        1.3921969549
 C          3.6946517465        0.9511873238        0.9710378097
 C          3.9270089541        0.5354978038       -0.3591790204
 C          5.2142964915        0.0851250580       -0.7608572591
 C          6.1182529565       -0.4440177984        0.2744458776
 C          7.4192687717        0.1284032053        0.3971428143
 C          7.6678607911        1.4388213156       -0.0619862047
 C          8.9243949012        1.9924565245        0.0174156012
 C          9.9854244561        1.2614100684        0.5370900728
 C          9.7697189613       -0.0409691251        0.9679740460
 C          8.5143720060       -0.6018485874        0.9037722763
 C          5.6404441800       -1.5099769849        1.0959877750
 C          4.6036086605       -2.3516169470        0.6417767455
 C          4.1043048278       -3.3566962614        1.4370807646
 C          4.6026221385       -3.5545897428        2.7186110288
 C          5.6055024595       -2.7213280632        3.1961078227
 C          6.1197822043       -1.7182844926        2.4057092372
 C          5.6725334682        0.0948078878       -2.1150991969
 C          6.6850525066       -0.7917470693       -2.5332348501
 C          7.1641811096       -0.7645052397       -3.8226507571
 C          6.6692503295        0.1544673917       -4.7389876303
 C          5.6900442862        1.0545132482       -4.3406845615
 C          5.1957297810        1.0294597154       -3.0558889137
 C          2.8120533375        0.5018788185       -1.2257348437
 C          1.5595572831        0.8447695134       -0.7835554748
 C         -1.1024102429        0.8838933789        0.5860061230
 C         -2.3841295842        1.1681654496        1.0365352198
 C         -3.4733847573        0.3069400825        0.5962801330
 N         -3.3641023729       -0.9946120049        0.5163049436
 C         -4.5714398711       -1.4707880581        0.1013525360
 C         -4.7612598256       -2.8958252617       -0.1218768481
 C         -5.7169906488       -3.3897293831       -1.0077350474
 C         -5.8575801485       -4.7525780937       -1.1908687882
 C         -5.0453139712       -5.6403921860       -0.5044376249
 C         -4.0791323307       -5.1561019584        0.3626334646
 C         -3.9355185317       -3.7957200224        0.5514514423
 C         -5.4463397018       -0.4107367779       -0.0730154425
 C         -6.8411644721       -0.3729026891       -0.4925356248
 C         -7.2626597480        0.4816484572       -1.5095675912
 C         -8.5915344370        0.5109061035       -1.8894937283
 C         -9.5150473469       -0.3092322736       -1.2632679269
 C         -9.1025056406       -1.1661940433       -0.2552458867
 C         -7.7763845578       -1.1987551649        0.1302287988
 N         -4.7262364397        0.7225592017        0.2353482741
 C         -5.1836145992        2.0463662400        0.1472784207
 C         -4.4255131169        2.9882180695       -0.5393710120
 C         -4.8723660640        4.2935348358       -0.6316923110
 C         -6.0759264602        4.6610741977       -0.0537566954
 C         -6.8307887891        3.7200048068        0.6270520336
 C         -6.3890580114        2.4148926791        0.7335441998
 H         -3.7817578424        3.1495806243        3.1121852347
 H         -1.6171723314        3.7800987333        3.0513119080
 H          0.6287819136        3.2829492585        2.2079860785
 H          2.3008313131        1.6403733002        2.4164486865
 H          4.5282743703        0.9892531450        1.6564199468
 H          6.8456887036        2.0172785604       -0.4561235117
 H          9.0873486584        3.0034569955       -0.3274984154
 H         10.9712882034        1.6971830799        0.5941309123
 H         10.5962612556       -0.6241861536        1.3483835028
 H          8.3716758870       -1.6317204718        1.1942597058
 H          4.2196477672       -2.2144104238       -0.3577223365
 H          3.3180738614       -3.9957920586        1.0618520362
 H          4.2057610207       -4.3413990435        3.3419708745
 H          5.9798224949       -2.8538009036        4.2012827829
 H          6.8620688842       -1.0459080291        2.8086262852
 H          7.0666414818       -1.5171286191       -1.8303848142
 H          7.9312456325       -1.4632938579       -4.1240022567
 H          7.0504653036        0.1765002940       -5.7486155805
 H          5.3183041433        1.7882493413       -5.0417859622
 H          4.4701687734        1.7662348204       -2.7457148571
 H          2.9406819684        0.1374964695       -2.2336828340
 H          0.7228229669        0.7919155385       -1.4646839833
 H         -0.9797730593        0.0409090811       -0.0751717796
 H         -6.3417986393       -2.7063091470       -1.5619537845
 H         -6.6029028790       -5.1250781685       -1.8791645874
 H         -5.1608391930       -6.7044667460       -0.6503203503
 H         -3.4362055183       -5.8440335491        0.8928739937
 H         -3.1846035126       -3.4022209708        1.2185813742
 H         -6.5449213507        1.1150096637       -2.0108655775
 H         -8.9068661475        1.1755667386       -2.6805530465
 H        -10.5526559381       -0.2830597066       -1.5611951890
 H         -9.8189301106       -1.8093109007        0.2346045831
 H         -7.4505257156       -1.8639234366        0.9162466691
 H         -3.4913367205        2.6929243730       -0.9947011914
 H         -4.2798539263        5.0237188756       -1.1629140165
 H         -6.4243050366        5.6799002337       -0.1327691993
 H         -7.7673591776        4.0043701152        1.0829594726
 H         -6.9652564275        1.6821024836        1.2770484015
  94
  -142.702815000000       0.133938350210060      !
 O         -3.8175117443        2.4651203944        2.4132620587
 C         -2.5709816141        2.2278141040        1.9208846361
 C         -1.4738073208        2.9808660355        2.3200579153
 C         -0.2053289429        2.6839181967        1.8642951978
 C          0.0042009544        1.6213761096        0.9853604317
 C          1.3460706400        1.2746075618        0.5201125115
 C          2.4415260847        1.3111852437        1.3907803755
 C          3.6921559639        0.9365999451        0.9721846171
 C          3.9330357367        0.5458084362       -0.3637069363
 C          5.2241424997        0.1045303475       -0.7654990563
 C          6.1165629329       -0.4529585655        0.2650702397
 C          7.4162130865        0.1146322758        0.4189080678
 C          7.6717682992        1.4360935514       -0.0033647801
 C          8.9275065392        1.9862314965        0.1065914505
 C          9.9811313618        1.2411944201        0.6213039219
 C          9.7589567354       -0.0716326957        1.0156738179
 C          8.5041800697       -0.6294248903        0.9208463557
 C          5.6276427899       -1.5400349753        1.0517223785
 C          4.5953406631       -2.3672720349        0.5621763767
 C          4.0844439508       -3.3923153897        1.3238000615
 C          4.5665601685       -3.6257860816        2.6054830561
 C          5.5647433891       -2.8076819016        3.1176270269
 C          6.0902996529       -1.7845179636        2.3611329423
 C          5.6945596532        0.1505718440       -2.1142090917
 C          6.7167349271       -0.7189612711       -2.5451924289
 C          7.2076668110       -0.6560468269       -3.8288555019
 C          6.7150714586        0.2824230660       -4.7266458401
 C          5.7261617242        1.1658973822       -4.3151306817
 C          5.2203096576        1.1055853690       -3.0360747378
 C          2.8243390269        0.5275068922       -1.2382556281
 C          1.5689261580        0.8640737261       -0.7987837029
 C         -1.1007745181        0.8826440003        0.5721407562
 C         -2.3834490109        1.1720544623        1.0167113139
 C         -3.4735697183        0.3054961315        0.5888544690
 N         -3.3693406758       -0.9978176547        0.5376807061
 C         -4.5794512799       -1.4783258345        0.1357068104
 C         -4.7753635738       -2.9072912527       -0.0547012355
 C         -3.9501409200       -3.7947584706        0.6356969328
 C         -4.0996095814       -5.1584738104        0.4786013395
 C         -5.0715389033       -5.6587384984       -0.3728133307
 C         -5.8827240093       -4.7838295354       -1.0766912516
 C         -5.7363683039       -3.4177420187       -0.9254626213
 C         -5.4508448999       -0.4190404900       -0.0600850397
 C         -6.8482984562       -0.3870586916       -0.4711450373
 C         -7.2767445693        0.4463925780       -1.5026478488
 C         -8.6087254594        0.4700672847       -1.8719637641
 C         -9.5283985425       -0.3347812091       -1.2208967183
 C         -9.1089108614       -1.1712058570       -0.1985725960
 C         -7.7797997390       -1.1978042478        0.1766690009
 N         -4.7254996170        0.7180610824        0.2210062876
 C         -5.1728979677        2.0426500407        0.1004989241
 C         -4.4044069145        2.9614899723       -0.6056725052
 C         -4.8388181911        4.2682722934       -0.7298377648
 C         -6.0405409771        4.6600961640       -0.1643298494
 C         -6.8058947476        3.7419987263        0.5358119450
 C         -6.3765543884        2.4357225234        0.6743160127
 H         -3.7874006699        3.1797764340        3.0625100523
 H         -1.6205136995        3.8019293634        3.0100827851
 H          0.6294031279        3.2900934082        2.1828944092
 H          2.2885943133        1.6060073930        2.4187503655
 H          4.5208462907        0.9595610851        1.6641615944
 H          6.8553913201        2.0251271861       -0.3937908294
 H          9.0957189706        3.0054554507       -0.2104672170
 H         10.9664457297        1.6744689057        0.7025224419
 H         10.5801355741       -0.6652916817        1.3915117122
 H          8.3573939815       -1.6665816383        1.1816629860
 H          4.2239975205       -2.2024590912       -0.4379230825
 H          3.3018702527       -4.0194287716        0.9217509708
 H          4.1601086614       -4.4277485451        3.2026877435
 H          5.9260652491       -2.9677425747        4.1235288835
 H          6.8282034740       -1.1243973947        2.7915078077
 H          7.0961155216       -1.4598467857       -1.8575543989
 H          7.9821009072       -1.3421607543       -4.1403873578
 H          7.1056640975        0.3324763456       -5.7316741494
 H          5.3570423646        1.9154595163       -5.0006804592
 H          4.4877567933        1.8302703346       -2.7142091705
 H          2.9600362807        0.1811072139       -2.2516025020
 H          0.7358665841        0.8230707082       -1.4853205121
 H         -0.9755235380        0.0345364975       -0.0820635972
 H         -3.1954006444       -3.3890354841        1.2909439443
 H         -3.4571703683       -5.8365554091        1.0219899655
 H         -5.1910829043       -6.7254885744       -0.4944269393
 H         -6.6320654464       -5.1691686064       -1.7534856548
 H         -6.3603177847       -2.7448689155       -1.4934591227
 H         -6.5622253141        1.0676109017       -2.0233330600
 H         -8.9295620498        1.1183491636       -2.6742903273
 H        -10.5682950217       -0.3132609157       -1.5109734745
 H         -9.8222533444       -1.8023742940        0.3108293424
 H         -7.4486053272       -1.8463348891        0.9743034163
 H         -3.4715157410        2.6473292544       -1.0507842967
 H         -4.2380357820        4.9803252015       -1.2761351112
 H         -6.3795402724        5.6798343934       -0.2685023019
 H         -7.7414079515        4.0453669674        0.9814693822
 H         -6.9607544730        1.7214887939        1.2336004042
