110
 energy: -178.271194696312 gnorm: 0.000099698686 xtb: 6.7.1 (edcfbbe)
N            2.10836475987863       10.17117385863930        2.93893823422138
C            1.54188975696439        9.22082290010995        2.64227395304959
C            0.80742333432194        8.06368171692941        2.28001368782853
N            1.46775154950073        6.95962233848866        1.97473504791372
C            0.76853218580390        5.87814740998995        1.63474150664357
C            1.46961406632373        4.66970419761745        1.29957043357261
C            2.86794924209912        4.62404875847294        1.37216761193270
C            3.55359128201081        3.47340478290834        1.07748967179345
C            2.84716062101206        2.33290729413869        0.67257010259950
N            3.51427332274482        1.14759275610075        0.37534202322039
C            3.12798082608861       -0.11860821116812        0.78566714175814
C            2.10347609141708       -0.50758363698800        1.63680359813004
C            1.96233812314692       -1.85285798071862        1.91180347558108
C            2.81478913553769       -2.81909516952812        1.36420070900394
C            2.62134173842707       -4.24289263929987        1.67897440931081
C            2.31989697973038       -4.65268408338474        2.97574359840173
C            2.16350255528429       -5.99382924538785        3.27180185408055
C            2.29713231942348       -6.94746493628276        2.27579891560665
C            2.58581862307430       -6.55056734185188        0.98047926105641
C            2.74901751203898       -5.21020223795115        0.68466631494527
C            3.85946810703391       -2.42072961400520        0.53914140033172
C            4.02469499808609       -1.07411573110423        0.25843840679162
C            4.99708263520015       -0.34399101663592       -0.50982639552406
C            6.09230674195010       -0.73426271476330       -1.26331376129087
C            6.84036208886845        0.23268683223851       -1.92312071069050
C            8.01754049890045       -0.14887124589182       -2.71777646688441
C            7.98975659560965       -1.27811287592146       -3.53286495037412
C            9.09674672622468       -1.63495784894024       -4.27984983022542
C           10.25165745367364       -0.87310651746785       -4.22171042536294
C           10.29163316979777        0.25006125789299       -3.41269386443067
C            9.18391434349456        0.61111651067126       -2.66879900911582
C            6.45848398308849        1.57774425783447       -1.83838825824797
C            5.36652177470470        1.98653001258422       -1.09956552919170
C            4.64804312850208        1.02088623866570       -0.41032243298166
C            1.46402010202553        2.37698747164654        0.57874956142343
C            0.74394052921483        3.52499806401354        0.90691106133942
C           -0.70940972907756        3.55905484856416        0.88234940565152
C           -1.46981982028131        2.44283194752166        0.53865138285799
C           -2.85609061815795        2.45940118667135        0.59155424937689
N           -3.55804140094194        1.29362442986441        0.30022330110151
C           -4.66826199477633        1.17853841306940       -0.51989412790352
C           -5.34540673774880        2.14772818487752       -1.24487101277689
C           -6.41637391544451        1.74833078513497       -2.01906703205694
C           -6.81718424883119        0.40885839697906       -2.10332276545513
C           -7.96528621708397        0.03488700124736       -2.94285597128736
C           -9.12093338535654        0.81242787186114       -2.95529137325874
C          -10.20009377796293        0.45756389799633       -3.74294168562265
C          -10.14156495489623       -0.67682153927702       -4.53500371109472
C           -8.99691417631912       -1.45619363891395       -4.53221754291338
C           -7.91868846091051       -1.10549585623654       -3.74158346482356
C           -6.11251441787514       -0.56197890225295       -1.40260832296441
C           -5.03895449411713       -0.18134285245624       -0.61419719345646
C           -4.10702819405694       -0.92003224388639        0.19516306411053
C           -3.97125268573933       -2.26669253376349        0.49316263302101
C           -2.94374582413509       -2.67438268100654        1.33436962364410
C           -2.75239054231181       -4.09816802826760        1.64861047908281
C           -1.47542454889330       -4.65457748515873        1.66938994191517
C           -1.29708743462360       -5.99425667175050        1.95976484289068
C           -2.38964064329071       -6.79678519562531        2.24218665501384
C           -3.66351576345540       -6.25362904914186        2.22672058103565
C           -3.84444084843094       -4.91610731985746        1.92876614568084
C           -2.09180054721297       -1.71669782845805        1.89776039964837
C           -2.21613817401003       -0.37053370056003        1.62206314233750
C           -3.20965551150063        0.02519177847159        0.73781746717856
C           -3.52374710971183        3.63583694907047        0.95673881171436
C           -2.79624188239865        4.75737372294722        1.26396787340912
C           -1.39545999173403        4.73807506372535        1.24411931788537
C           -0.65160877041937        5.91287403287776        1.60463659236994
N           -1.31081930258000        7.02854795304172        1.91308073443590
C           -0.61075877451441        8.09915129434501        2.24724832726864
C           -1.30213309244580        9.29280207127617        2.57426362452627
N           -1.83309864107277       10.27136203451287        2.84368739555267
H            3.38841572461686        5.51499933196493        1.68665982500597
H            4.62659495418406        3.43069661868955        1.17918560563219
H            1.44159937065959        0.21361180130324        2.09194062175104
H            1.16174045760825       -2.17291183202253        2.56174254184847
H            2.23242946085392       -3.91621360990129        3.76138276530208
H            1.93651335919034       -6.29745477542933        4.28344558164461
H            2.17445343815258       -7.99536221464801        2.50780825751108
H            2.68245027495257       -7.28918019557304        0.19790399211781
H            2.96060666911711       -4.90488200516807       -0.32997130306452
H            4.55306037069198       -3.14787930212256        0.14508244384075
H            6.36968479682040       -1.77579357834616       -1.32096366019784
H            7.08577584423284       -1.86655004206400       -3.59617996376965
H            9.05824987607586       -2.50996856052762       -4.91251898568779
H           11.11666490522615       -1.15330030498934       -4.80441187661120
H           11.19121384099686        0.84609722892596       -3.35995008518909
H            9.22735187219661        1.47884076152125       -2.02643933743040
H            7.02300830291331        2.31457057596910       -2.39009303053623
H            5.07855896670682        3.02651621353513       -1.07967798496480
H            0.95839346677024        1.49357991733213        0.22595723614772
H           -0.99378143948593        1.53443719197292        0.20918912819266
H           -5.04068545161002        3.18294110661227       -1.22642242891638
H           -6.94707947549844        2.48775157163987       -2.60011352783701
H           -9.17941837168854        1.68934788771219       -2.32675694340132
H          -11.09197091080876        1.06734024611878       -3.73785402241739
H          -10.98414382787703       -0.95212060834962       -5.15191434343239
H           -8.94365923431060       -2.34008523471914       -5.15134159494203
H           -7.02176020444688       -1.70777301727600       -3.75741142425609
H           -6.40515605693526       -1.59940818896884       -1.45853728621391
H           -4.64517434832486       -2.99071278672309        0.06118875577310
H           -0.61771994556696       -4.04083368776937        1.43341222328794
H           -0.30091461312257       -6.41076250107593        1.96404096350093
H           -2.24888843671835       -7.84242664010456        2.47293287197216
H           -4.51915694535617       -6.87460821941468        2.44962842143447
H           -4.83863377130432       -4.49281202847638        1.93322662403676
H           -1.33122419306664       -2.04375283871691        2.59047077455418
H           -1.56754009619125        0.34718261971948        2.10145777155793
H           -4.60040956235294        3.64339687197834        1.02124608523520
H           -3.28594433613324        5.67453027832376        1.55142817427218
