110
 energy: -178.217890940671 gnorm: 0.000103542360 xtb: 6.7.1 (edcfbbe)
N            1.43391185105064        9.89415083339718        1.78520871920301
C            0.91378684448827        8.88691495998686        1.60426123591120
C            0.27660779089267        7.65248083309501        1.37814031636179
N            0.99926886973657        6.55810685764293        1.14272362745561
C            0.38936692299977        5.38202843706859        0.92482761735677
C            1.15516723472271        4.21224212170576        0.66442788303753
C            2.56158393870402        4.27939776202397        0.68363510301853
C            3.32617995055430        3.16364249746708        0.48744779270337
C            2.70041124987562        1.93108750860445        0.22832748654066
N            3.45800715307799        0.76929686393693        0.04947261214920
C            3.19784784683990       -0.45163936912563        0.64203420995044
C            2.23477621950739       -0.80213925589446        1.57904058531975
C            2.21231664466390       -2.10560221591815        2.03073452008458
C            3.12401379565798       -3.06846182204534        1.57831206647247
C            3.05755654988440       -4.44752681870390        2.08261494012031
C            2.78692344890766       -4.70584102863306        3.42515949725179
C            2.74660067533613       -6.00346027103125        3.89925138688949
C            2.97119049862659       -7.06672181147311        3.04024600036124
C            3.23254791401293       -6.82299326631021        1.70154797573461
C            3.27610018582577       -5.52565839684370        1.22666035729393
C            4.10627603659475       -2.70339588809707        0.66299280175909
C            4.15071416281723       -1.39888575458613        0.20163354534467
C            5.02870364970905       -0.70329845697835       -0.70153882625598
C            6.12738423978091       -1.09727682644706       -1.44560317687377
C            6.75565653566581       -0.17061161280638       -2.27134308606853
C            7.92701251647717       -0.56203279043129       -3.06783476862846
C            8.91552197664318       -1.37682946942899       -2.51909365270978
C           10.01976553699431       -1.74415577167878       -3.26469268473499
C           10.15304033361737       -1.30954287557752       -4.57292212675519
C            9.17497050325675       -0.50272549991946       -5.13017913838928
C            8.07278267917951       -0.12938811280769       -4.38438748466192
C            6.25796623451957        1.13727818897273       -2.34720590589717
C            5.16814460853502        1.55226898753032       -1.60966383048957
C            4.56211548818061        0.63004755144898       -0.76741571892678
C            1.32350886610392        1.85586292701201        0.16949794361611
C            0.51613703899517        2.97406408045750        0.40523681055448
C           -0.91994180542047        2.90129834285967        0.43037395832111
C           -1.61698373023647        1.71124730452429        0.19954137837207
C           -2.99018519328663        1.63777729179977        0.32297532897279
N           -3.61919940393930        0.40128788696272        0.15238966466115
C           -4.73440428477582        0.13939711910385       -0.61805342627384
C           -5.51550635065401        0.99998385528143       -1.37727988132409
C           -6.58020613278052        0.46489206081543       -2.07294888045910
C           -6.87490318298400       -0.90500435041817       -2.04776699386249
C           -8.02436650146064       -1.42437598718580       -2.80156324801379
C           -9.23359537847917       -0.73189470838646       -2.82033821032303
C          -10.31570158524954       -1.22328407112837       -3.52590720842380
C          -10.20755647916130       -2.41125429424263       -4.22960053717591
C           -9.00996949718731       -3.10686143093842       -4.22034677071219
C           -7.92843565822156       -2.62027124103324       -3.51060732917835
C           -6.06506546476762       -1.76774668143564       -1.31595732775582
C           -4.99686665297135       -1.25058935037013       -0.60381411584134
C           -3.97875860254709       -1.85144503598977        0.21729361488941
C           -3.70408906639851       -3.15756556763297        0.58697141612203
C           -2.61033430668890       -3.41511628909759        1.40719050332570
C           -2.26086413810449       -4.79179015439746        1.78284119434457
C           -0.92849365243954       -5.20097246051407        1.80857530344237
C           -0.59727538227348       -6.49735843727956        2.15431277847054
C           -1.58966903340925       -7.40411261676806        2.48750058963687
C           -2.91685866325161       -7.00835308745819        2.46771651668429
C           -3.25081215144081       -5.71443021690212        2.11510482860704
C           -1.83735999099641       -2.34777097669975        1.88320838991337
C           -2.09905998722215       -1.03969737477716        1.53487379443857
C           -3.15399991514860       -0.79470635076551        0.66523080930514
C           -3.72873752189212        2.79193338837190        0.63842970987348
C           -3.07673346625253        3.98032294025158        0.81604705238703
C           -1.67353720579592        4.06326661645647        0.73167842624194
C           -1.02385151037027        5.30688965756810        0.96306995869385
N           -1.74258342826256        6.41147466566110        1.21937500677356
C           -1.12861954725911        7.57731018179785        1.41801558025491
C           -1.88006312667195        8.73726240105595        1.68379118942081
N           -2.49382933349163        9.68366049075251        1.89695224782480
H            3.01772090011594        5.23605246529936        0.88745362607243
H            4.40178365886627        3.21193639333513        0.55622220756486
H            1.53085684928378       -0.07822499051385        1.96042271071455
H            1.46047431604864       -2.39734031898264        2.74868880967294
H            2.63338724377765       -3.88215584944236        4.10702533711195
H            2.54170414522530       -6.18722697114502        4.94377511085622
H            2.93991213877111       -8.08047567676456        3.41161135000755
H            3.39961447559633       -7.64834610124523        1.02453267452617
H            3.46235442901653       -5.34393979111316        0.17807436652492
H            4.84357685711925       -3.42097626264694        0.33671825235297
H            6.47546213809304       -2.11824271806149       -1.40522654271474
H            8.82619614583021       -1.70404813699205       -1.49324663668649
H           10.78156414620891       -2.37021016413564       -2.82318276656807
H           11.01518371135205       -1.59829512003588       -5.15558264140309
H            9.27112242948887       -0.16464414109417       -6.15174968255567
H            7.30475095625664        0.48484213099698       -4.83167475209144
H            6.75558847495139        1.84695372645890       -2.99093035914107
H            4.79699059508772        2.56167144708292       -1.69853401521846
H            0.87996745055698        0.90353094819187       -0.07138732483356
H           -1.08825054947648        0.81877600390333       -0.09240932391203
H           -5.29329319178100        2.05405121313525       -1.44003438945498
H           -7.19147457245463        1.11723107595238       -2.67836301684722
H           -9.33031404918996        0.18604729239117       -2.25888849574073
H          -11.24864372251749       -0.67857172468644       -3.52575920583369
H          -11.05268846573965       -2.79311432109753       -4.78284633280780
H           -8.91829140942273       -4.03173578453017       -4.77118848222829
H           -6.99151318791639       -3.15817504451013       -3.52301148123725
H           -6.27717232098546       -2.82568446612386       -1.28768370255217
H           -4.31717178911953       -3.96746979232002        0.22212959615849
H           -0.14770465579116       -4.50689774496784        1.53205415543246
H            0.43931567231871       -6.79906667837411        2.16261216636947
H           -1.32949731261845       -8.41593609349431        2.76086908494284
H           -3.69456712202176       -7.71082273442382        2.73030326581434
H           -4.28633370121908       -5.40615916645536        2.11859485017432
H           -1.02615643931436       -2.55903332885526        2.56297102693738
H           -1.50730627301651       -0.23420126142644        1.94242977235183
H           -4.79836039658834        2.72520814996600        0.76162436672460
H           -3.62084161479986        4.88137247394845        1.05456916132667
