  110
       -178.21167344
 N          1.5958870797        9.8474345857        1.8371376464
 C          1.0610475122        8.8491657305        1.6458836612
 C          0.4024426299        7.6292732140        1.4067797434
 N          1.1042585260        6.5233797168        1.1692161544
 C          0.4738505932        5.3645523207        0.9408296865
 C          1.2167625033        4.1815602448        0.6739919614
 C          2.6238650450        4.2201390321        0.7031301792
 C          3.3682022755        3.0921279351        0.5009461217
 C          2.7191201819        1.8748342991        0.2223274442
 N          3.4569092402        0.7009523414        0.0347284228
 C          3.1734218814       -0.5207424244        0.6137438489
 C          2.1925291336       -0.8668727134        1.5342111421
 C          2.1488204541       -2.1730582465        1.9762933966
 C          3.0547795446       -3.1435047450        1.5286546201
 C          2.9653455056       -4.5249631575        2.0221863303
 C          2.6880020842       -4.7881130504        3.3624254912
 C          2.6268504138       -6.0882576583        3.8272103389
 C          2.8348171623       -7.1487484600        2.9604725498
 C          3.1020907802       -6.8998107418        1.6238912708
 C          3.1686478738       -5.5999672363        1.1586407837
 C          4.0545175130       -2.7838016347        0.6297759209
 C          4.1221908987       -1.4762604908        0.1810171720
 C          5.0258259767       -0.7825599430       -0.6982380773
 C          6.1401252777       -1.1799027140       -1.4159713394
 C          6.8009258717       -0.2505966643       -2.2139357541
 C          7.9971961724       -0.6424079830       -2.9714605987
 C          8.9564854332       -1.4738767043       -2.3956202837
 C         10.0868395990       -1.8399348097       -3.1013963750
 C         10.2763605056       -1.3874763753       -4.3966484192
 C          9.3280940777       -0.5640546504       -4.9807181996
 C          8.1997135031       -0.1918436174       -4.2745954906
 C          6.3146170234        1.0616049931       -2.2936672276
 C          5.2086251461        1.4795862239       -1.5826089738
 C          4.5741381181        0.5564575927       -0.7618063048
 C          1.3416056444        1.8268430276        0.1538970544
 C          0.5535607807        2.9573698770        0.3987234720
 C         -0.8823284998        2.9117862757        0.4197415927
 C         -1.6024627406        1.7365142063        0.1825490506
 C         -2.9767369725        1.6889005943        0.3040812723
 N         -3.6279529119        0.4635804586        0.1299427840
 C         -4.7442180112        0.2217380992       -0.6438038318
 C         -5.5069530567        1.0962616767       -1.4064989260
 C         -6.5796512900        0.5805328056       -2.1043440861
 C         -6.9002883507       -0.7837024570       -2.0779386592
 C         -8.0573775648       -1.2840947407       -2.8322043252
 C         -9.2538314887       -0.5697070099       -2.8560602905
 C        -10.3443074846       -1.0459824577       -3.5590234365
 C        -10.2572544520       -2.2399119632       -4.2556331352
 C         -9.0720860083       -2.9565141318       -4.2425048077
 C         -7.9824325815       -2.4854461155       -3.5349121364
 C         -6.1089428065       -1.6609878093       -1.3420591103
 C         -5.0334770658       -1.1633577212       -0.6279219535
 C         -4.0297714045       -1.7816759880        0.1982585414
 C         -3.7800286951       -3.0914039210        0.5713707092
 C         -2.6931925117       -3.3666680234        1.3958413865
 C         -2.3707434440       -4.7482933697        1.7761548934
 C         -1.0467386200       -5.1838301051        1.8030527147
 C         -0.7414506374       -6.4851527995        2.1540785077
 C         -1.7516792863       -7.3702167597        2.4920888623
 C         -3.0707806076       -6.9481245791        2.4711133687
 C         -3.3790016034       -5.6495388467        2.1125269197
 C         -1.9023855150       -2.3124823444        1.8723043121
 C         -2.1397118969       -1.0006784218        1.5211053580
 C         -3.1875497196       -0.7387665412        0.6473045346
 C         -3.6958555374        2.8553449647        0.6228552899
 C         -3.0211848493        4.0296177606        0.8081506128
 C         -1.6165799715        4.0867430875        0.7279429924
 C         -0.9453554226        5.3164371855        0.9715888642
 N         -1.6425872574        6.4293473381        1.2315798684
 C         -1.0080915155        7.5808773036        1.4395216286
 C         -1.7381052698        8.7524029476        1.7112394863
 N         -2.3303706036        9.7120971803        1.9284105160
 H          3.0956296324        5.1660539694        0.9209426282
 H          4.4438034183        3.1174317264        0.5803696421
 H          1.4921929769       -0.1373587617        1.9111228476
 H          1.3848472690       -2.4613691269        2.6826891262
 H          2.5465118651       -3.9665600789        4.0494094748
 H          2.4183494310       -6.2762984465        4.8702324515
 H          2.7864461071       -8.1645240640        3.3243789507
 H          3.2558143647       -7.7229863656        0.9411551630
 H          3.3597542590       -5.4131903639        0.1117287212
 H          4.7869048207       -3.5085608736        0.3082690569
 H          6.4779472973       -2.2042919637       -1.3754010133
 H          8.8241001790       -1.8141724821       -1.3787746283
 H         10.8253310996       -2.4781457423       -2.6384915821
 H         11.1591314755       -1.6749054734       -4.9481317405
 H          9.4681365184       -0.2121813089       -5.9924232096
 H          7.4551266944        0.4341287024       -4.7440738194
 H          6.8353663879        1.7726533542       -2.9171705962
 H          4.8479481076        2.4925427657       -1.6731184542
 H          0.8812326380        0.8868161185       -0.1037650167
 H         -1.0908477929        0.8351364159       -0.1131872935
 H         -5.2641485093        2.1457559955       -1.4688792329
 H         -7.1769432478        1.2432799111       -2.7123405505
 H         -9.3345219181        0.3527416819       -2.2995837543
 H        -11.2674919329       -0.4849880073       -3.5621549475
 H        -11.1089017034       -2.6099245001       -4.8067867300
 H         -8.9963473828       -3.8853877724       -4.7889140972
 H         -7.0547560173       -3.0392420040       -3.5452054300
 H         -6.3419540278       -2.7144712294       -1.3125971683
 H         -4.4061604765       -3.8912799503        0.2065463004
 H         -0.2524960210       -4.5067662217        1.5228383122
 H          0.2889119251       -6.8075368189        2.1634450652
 H         -1.5116371689       -8.3855729067        2.7705541608
 H         -3.8622548151       -7.6336409462        2.7370889831
 H         -4.4082147692       -5.3207904936        2.1134565233
 H         -1.0978065094       -2.5373071227        2.5555554903
 H         -1.5357760636       -0.2044403915        1.9288135882
 H         -4.7666904866        2.8071839114        0.7441000706
 H         -3.5467125134        4.9402949119        1.0516566716
