110
 energy: -178.271302294518 gnorm: 0.000093030271 xtb: 6.7.1 (edcfbbe)
N            1.43370730850848        9.89969670341848        1.72134383977575
C            0.93358021865938        8.88315932089458        1.55222980813867
C            0.27980391013981        7.64194337822197        1.34830612443967
N            1.01259579654541        6.56697290006365        1.11228127671557
C            0.38862299748043        5.40641299124932        0.91804068598321
C            1.16964529752880        4.22598078613766        0.67086087704624
C            2.56900663411095        4.29126259336519        0.68767431686124
C            3.33120310340867        3.16823279277322        0.49040380123008
C            2.70157443567314        1.94031427058011        0.24650984307693
N            3.44764462741474        0.77873381446290        0.06436228745757
C            3.17698827678640       -0.45053066496891        0.64422692173980
C            2.21339466075092       -0.80541370331486        1.57740648259989
C            2.19113665525542       -2.11110881625013        2.02459373912723
C            3.10423815788384       -3.07119641858545        1.57135922514707
C            3.04108325621870       -4.45211084884453        2.07373864789814
C            2.77957171608876       -4.71274799459887        3.41713676252228
C            2.74543552699813       -6.01123815065843        3.88975592653795
C            2.96838422198694       -7.07252856634559        3.02820477223422
C            3.22053489332408       -6.82620494276933        1.68835261242523
C            3.25671588510624       -5.52794623432870        1.21492266282340
C            4.08684279980386       -2.70184033979741        0.66058755373530
C            4.13078148246800       -1.39466745628617        0.20394568184885
C            5.01685845040906       -0.69688900492464       -0.68864111334957
C            6.11432603893426       -1.09631289730318       -1.43372748196937
C            6.75191015319925       -0.17121964502079       -2.25102086449107
C            7.92156500689273       -0.56750020408211       -3.04963999660361
C            8.90763903911402       -1.38518410611438       -2.50223309987004
C           10.00869403233987       -1.75819374668441       -3.25006649292684
C           10.14110091570524       -1.32509343465094       -4.55871378747709
C            9.16526366117327       -0.51479036273099       -5.11438421978389
C            8.06583846485860       -0.13691672422572       -4.36648026300670
C            6.26546891072264        1.14046820995110       -2.31929266959932
C            5.17695075900503        1.56003437994215       -1.58114256600818
C            4.56233535943876        0.63911043417468       -0.74591183291624
C            1.31698146816882        1.87322545036018        0.20201058048965
C            0.52188105156220        2.99618080628103        0.42810751516037
C           -0.92990568043444        2.92234965525329        0.45297190531621
C           -1.61345231337765        1.72945828767731        0.22629021147301
C           -2.99402445483669        1.64610127114092        0.33683684467071
N           -3.61124152305216        0.41148311076594        0.16104430707355
C           -4.73671650323284        0.14795355207221       -0.60234018066366
C           -5.52631010224870        1.00630584917156       -1.35272613541440
C           -6.58767674371266        0.46702779677138       -2.05161655610636
C           -6.87056204118854       -0.90468185963311       -2.03664248169585
C           -8.01625912984880       -1.42827262419117       -2.79555755072330
C           -9.23443241152238       -0.75266014332349       -2.80027973349327
C          -10.31148426896688       -1.24726347849078       -3.51172471192311
C          -10.18897012850897       -2.42232858876120       -4.23409913454805
C           -8.98215375732596       -3.10146070380642       -4.23816671002053
C           -7.90543728483188       -2.61072211230379       -3.52363483561440
C           -6.05271341005959       -1.76428139403146       -1.31383956084600
C           -4.98627740521361       -1.24260208504182       -0.59993556982995
C           -3.95958078421871       -1.84496668097479        0.20804792378235
C           -3.68492471136821       -3.15420557617306        0.57090990815639
C           -2.59140145304234       -3.41634886150030        1.38672651962098
C           -2.24506555424565       -4.79528582014869        1.76161846818143
C           -0.91544990454650       -5.21172645688661        1.77506892458710
C           -0.58816936334898       -6.50889250862547        2.12249036151669
C           -1.58220195930222       -7.40862917626734        2.46868082483558
C           -2.90703430029569       -7.00530556621432        2.46056672472432
C           -3.23675656778932       -5.71033730183322        2.10708916452586
C           -1.81656892796750       -2.35226784773845        1.86447729149064
C           -2.07767533233939       -1.04182968042434        1.52185625229059
C           -3.13381232652510       -0.79178376661163        0.65717551202563
C           -3.73683885271687        2.79425263612700        0.64194279609736
C           -3.08831382184806        3.98920351396380        0.82465622702230
C           -1.69220432438462        4.07401446871533        0.74300870004280
C           -1.02962996448048        5.32966658530577        0.96130796038870
N           -1.76186158516957        6.41562774452610        1.20411883493874
C           -1.13616634580152        7.56400132207009        1.39824104635778
C           -1.90582362854451        8.72591900847517        1.65769845481415
N           -2.50114261279513        9.68133009481851        1.86960573813729
H            3.02950002052646        5.24693338936342        0.88318292174526
H            4.40721191319756        3.21586612197408        0.54991444001502
H            1.50855203723545       -0.08507081186600        1.96434554270229
H            1.43898616200113       -2.40525084947247        2.74125654240901
H            2.62703907587525       -3.89024875754870        4.10081115899314
H            2.54690407655566       -6.19699729944127        4.93522232275784
H            2.94236149083009       -8.08691131180420        3.39838622459871
H            3.38602788963557       -7.65014136991718        1.00911943962336
H            3.43643310737724       -5.34385420087952        0.16554738381266
H            4.82702725096588       -3.41623496082848        0.33389814584260
H            6.45192626837278       -2.12099919889898       -1.39932052011580
H            8.81811680747176       -1.71209871461846       -1.47623635976639
H           10.76856208029223       -2.38761573540806       -2.80986349231522
H           11.00083849428805       -1.61784217126640       -5.14304276234788
H            9.26069985352919       -0.17758480312885       -6.13640329520840
H            7.29942320550451        0.48061998099612       -4.81223077104373
H            6.76930495750032        1.85021280045979       -2.95825916325328
H            4.81504788012268        2.57306680990473       -1.66871250006774
H            0.86992354314423        0.91993642587847       -0.02604148882305
H           -1.08046923338706        0.83749620329344       -0.05751335587386
H           -5.31521632848495        2.06308953914271       -1.41077513039491
H           -7.20544332794865        1.11927768567796       -2.65071273773143
H           -9.34182787116660        0.15553712512032       -2.22486998006015
H          -11.25165865032542       -0.71503276757907       -3.50143736392345
H          -11.03016109976853       -2.80696189862625       -4.79155377377986
H           -8.87922136387500       -4.01662439464017       -4.80321700570593
H           -6.96132631564872       -3.13571633978898       -3.54554823438570
H           -6.25302933551897       -2.82471313188819       -1.29439421576600
H           -4.30226196321932       -3.96081734765971        0.20595722137070
H           -0.13336753048267       -4.52257227655335        1.48975553133074
H            0.44672509442600       -6.81632549835378        2.12206402917382
H           -1.32506728771344       -8.42100137731951        2.74321264866889
H           -3.68633683912277       -7.70238848669609        2.73295613972668
H           -4.27045397410469       -5.39590111544971        2.11866715007498
H           -1.00383372902606       -2.56678583596700        2.54141343159113
H           -1.48363769028633       -0.24068331368831        1.93522091700710
H           -4.80721539129107        2.72624217152241        0.75596604343967
H           -3.63733330086672        4.88797119239083        1.05796339166292
