61
 energy: -95.412919654787 gnorm: 0.000055747309 xtb: 6.7.1 (edcfbbe)
C            2.79870381779567       -3.80187608560784        0.74561742400998
C            1.44239139738775       -3.79392589112226        0.54522934964149
C            0.72627082286792       -2.58375609728232        0.30621151546332
C           -0.66448941919537       -2.55257491273036        0.04572320528663
C           -1.46998304336170       -3.74536815789814       -0.06108605263913
N           -2.72113789335422       -3.72549022376294       -0.37330762732576
C           -3.40748945738007       -2.60764084492222       -0.55181797079733
C           -2.77806215384364       -1.35520150253291       -0.24229792976125
N           -3.53348000295065       -0.19220810363925       -0.31203464876835
C           -4.79944725769170       -0.02835664234931        0.21699572187080
C           -5.55764950015615       -0.90930063153119        0.97520427820381
C           -6.80222041302153       -0.48383049166358        1.40247146298457
C           -7.27809838169916        0.78906875510399        1.09929624616028
C           -6.51533016469245        1.67993970718614        0.36568544252422
C           -5.26626240422520        1.27385107859797       -0.07791759861490
C           -4.22345765562724        1.91983970646342       -0.83018776755941
C           -4.09668994764080        3.17962160944188       -1.39490206543714
C           -2.93841880471164        3.48029385046601       -2.08854543990927
C           -1.92629596984138        2.53604867052318       -2.23723364996941
C           -2.03044803588634        1.27358639657173       -1.68227630725915
C           -3.17637510370181        0.97668070368789       -0.95813105926002
C           -1.43763435563336       -1.34615945685860        0.02360791517641
C            1.50220235149451       -1.39616389161356        0.28450413189445
C            2.86358523265698       -1.41955514240564        0.48029260335484
N            3.58860120377531       -0.21752122402209        0.42968246719839
C            4.72811454911098        0.00086723285843       -0.31269369975779
C            5.39326158088566       -0.85409706258545       -1.18180937075841
C            6.51957962007547       -0.37375556887699       -1.82230815716563
C            6.97253496801835        0.92775119542788       -1.61885371407046
C            6.29916435046360        1.79255335934666       -0.77613322438332
C            5.16680361829374        1.33288552793173       -0.12039660868313
C            4.23132535612406        1.94042291935366        0.78637934744309
C            4.13236647451404        3.20234277506247        1.35355410562930
C            3.08856562051031        3.45698004040259        2.22335319164725
C            2.16282175331333        2.46610651140037        2.54209583844523
C            2.24147555433445        1.20127261910798        1.99117445699163
C            3.27225065957757        0.94640442513949        1.09607347349671
C            3.53981643445230       -2.62433784861421        0.72771473878419
H            3.30393863975248       -4.73800901287219        0.93613263790471
H            0.90831198292162       -4.72887431078333        0.59468971859300
H           -1.05884216267867       -4.71373786713440        0.17927436200867
H           -4.38299257616158       -2.66276202805064       -1.00246038434740
H           -5.18677255293230       -1.89050441198187        1.22859185897833
H           -7.41536120098040       -1.15165448164899        1.98869789183059
H           -8.25476939130004        1.08519405848685        1.45155988615829
H           -6.88036519728269        2.67126888679731        0.14417152202463
H           -4.88864081032727        3.90629652001947       -1.29610764392887
H           -2.81878194291876        4.45694771624707       -2.53285756777877
H           -1.04199768377653        2.79239963191828       -2.80111832083829
H           -1.25214162393050        0.54032665873781       -1.82647267215129
H           -0.97475018976651       -0.40981940566501        0.29387396033472
H            1.03978701932940       -0.45099546172502        0.04771925902062
H            5.03581828903449       -1.85678808664876       -1.35945387014800
H            7.05759822494484       -1.01998647871435       -2.49993338084926
H            7.85769325344486        1.26557297355275       -2.13692252316651
H            6.64248061025328        2.80588230123433       -0.63181265622397
H            4.85958389805141        3.96565081834575        1.12117810580347
H            2.99122894658484        4.43424434661169        2.67223190861759
H            1.36764237735678        2.69042099267768        3.23764200625082
H            1.53188196964446        0.43291480226924        2.25800700114792
H            4.59810458510884       -2.62338631979239        0.93213879150281
