61
 energy: -95.413625159634 gnorm: 0.000125903545 xtb: 6.7.1 (edcfbbe)
C            2.86624903460279       -3.53040511900448        1.37911823515265
C            1.50845906542124       -3.58890385658401        1.20249744687379
C            0.77940259449359       -2.49410971860172        0.64973728547725
C           -0.63150300217988       -2.49528592660547        0.57101064836686
C           -1.41853279993438       -3.69928014908059        0.70219983220578
N           -2.70811764614170       -3.70254468565705        0.71475572902587
C           -3.43807323428680       -2.60921381292885        0.55518079875075
C           -2.77728842615440       -1.38105301344706        0.21419996838760
N           -3.54671404991708       -0.24612555596251       -0.00771294931480
C           -3.34713429397612        0.99564536859211        0.56644995935035
C           -2.38549130261896        1.40496402940686        1.47959721339548
C           -2.41625042999155        2.72098649547572        1.90309078760418
C           -3.38289697292250        3.61011341847687        1.44160461832442
C           -4.36238724388445        3.19994495192716        0.55528944801556
C           -4.35255232865256        1.88443136130655        0.11766305075636
C           -5.20418234073631        1.12802541944555       -0.76186025750598
C           -6.33244001083766        1.44289122922009       -1.50333405587240
C           -6.91128744346366        0.45395624128311       -2.27834376671416
C           -6.37035325261700       -0.82808431335500       -2.32908900501528
C           -5.24290067934516       -1.16435244551371       -1.60231256218812
C           -4.67277533122849       -0.18212343510606       -0.80495990848289
C           -1.41194572411355       -1.34308907589940        0.23439478504100
C            1.54959642692048       -1.37475626786058        0.23870894049076
C            2.90959037870123       -1.32436986311180        0.43233792648464
N            3.61771288629129       -0.16734878815747        0.06565801241299
C            4.77963790220113       -0.12697852257238       -0.67271226108216
C            5.48667932124401       -1.16491403153436       -1.26575043582935
C            6.62418542884810       -0.84390945830661       -1.98151773210695
C            7.04860537315950        0.47567449503811       -2.11972260033177
C            6.33387871070238        1.51591489168615       -1.55579468894996
C            5.18951246630475        1.21875968187352       -0.83055862338677
C            4.21437844091791        2.02267063576703       -0.14595497291897
C            4.07398926127457        3.38764143376148        0.05757658192476
C            2.99599643447357        3.83984337987135        0.79521122402027
C            2.07763337051597        2.94725128081915        1.34316770081232
C            2.19839573622032        1.58356930386329        1.15741888504711
C            3.26210862959963        1.12367384283976        0.39134216039063
C            3.59642770910910       -2.40175901682278        1.01523200541758
H            3.38447322508669       -4.37059495949732        1.81903091075494
H            0.97762770596628       -4.47534674360660        1.51153578649214
H           -0.93966222169632       -4.66689633341675        0.69684589977225
H           -4.49042185183045       -2.65050108168129        0.77531756979720
H           -1.64842084662496        0.71726222510084        1.86419067545232
H           -1.67803667544282        3.06366040527659        2.61254356033914
H           -3.37224028410177        4.63110461451238        1.79245190796034
H           -5.12240491267240        3.88545856129225        0.21260902159370
H           -6.74557615149811        2.43972875612423       -1.47698567906647
H           -7.79164026018004        0.67866155111770       -2.86156654316960
H           -6.83740824219504       -1.57450435107017       -2.95382766364867
H           -4.81741379507228       -2.15444325085491       -1.65885336628369
H           -0.92019660659177       -0.41901752147174       -0.02559653648962
H            1.07326352303383       -0.54284962517907       -0.25542140663476
H            5.15278698857160       -2.18756243899363       -1.18024261353081
H            7.19421593240672       -1.63330871462093       -2.44866486031102
H            7.94402264114578        0.68563413967242       -2.68555565518423
H            6.65406734500019        2.53960228572246       -1.67870738584246
H            4.79537540319320        4.07903643709067       -0.35114387403591
H            2.86571656290990        4.89904416018708        0.95997822175015
H            1.25428728786969        3.32962072243920        1.92815803899694
H            1.49585041778400        0.89756258989052        1.60538066148145
H            4.65612183498552       -2.33664139589226        1.20094424603163
