  92
       -131.68718806
 C         -7.3847745267        5.0271495032       -1.8418940530
 C         -7.5503384438        4.3528812596       -0.4726726557
 C         -9.0206529289        3.9559300787       -0.3149617681
 C         -7.2038205032        5.3488842912        0.6431773696
 C         -6.6099054712        3.1599296591       -0.3824028726
 C         -5.2321223476        3.3728986897       -0.5251514639
 C         -4.3033854424        2.3553477729       -0.4469856420
 C         -4.7636781535        1.0702079612       -0.2049887615
 C         -6.1474828578        0.8247599390       -0.0849917104
 C         -7.0603504063        1.8678240629       -0.1700044579
 C         -6.2951193368       -0.5915406566        0.1051827460
 C         -7.4003996034       -1.4092072918        0.3007134579
 C         -7.2243791477       -2.7699963244        0.4874157451
 C         -8.3884481801       -3.7259134517        0.7042524510
 C         -9.7458115674       -3.0187702590        0.6612022259
 C         -8.3755840196       -4.7958769796       -0.3965635629
 C         -8.2427004614       -4.3927618954        2.0793975740
 C         -5.9195420340       -3.2814008090        0.4900343156
 C         -4.8038996837       -2.4927042903        0.2964150838
 C         -4.9941521198       -1.1360490674        0.0832633266
 N         -4.0734577984       -0.1226991456       -0.1039212831
 C         -2.6871697973       -0.2766613064       -0.1873673134
 C         -1.8406161212        0.5466303336        0.5518748396
 C         -0.4720693264        0.4019093338        0.4546192655
 C          0.0887684925       -0.5772895604       -0.3636301484
 C          1.5452312993       -0.7327035350       -0.4602550870
 C          2.1276047818       -1.9994359272       -0.5023350567
 C          3.4957717584       -2.1446683464       -0.5827390166
 C          4.3243208692       -1.0232734209       -0.6239835804
 C          5.7579604018       -1.2270418565       -0.7158386596
 N          6.3254491876       -2.2284260279       -1.3410545844
 N          7.6480112661       -2.0893239976       -1.2527384697
 C          7.9081028388       -1.0040385488       -0.5678149623
 C          9.2437564883       -0.5421570234       -0.2313085310
 C          9.5288549500        0.0741960929        0.9852195248
 C         10.8186296913        0.4858406407        1.2655676316
 C         11.8333184213        0.2839100514        0.3450036978
 C         11.5587258688       -0.3484538213       -0.8572571864
 C         10.2730062374       -0.7628752438       -1.1454139352
 N          6.7287546760       -0.4039000461       -0.1953341064
 C          6.5571380360        0.7798787394        0.5427633819
 C          5.8004926262        0.7638780727        1.7093937678
 C          5.6309530854        1.9333947728        2.4271958374
 C          6.2150977986        3.1112514352        1.9902448389
 C          6.9715151878        3.1219995204        0.8296909393
 C          7.1443567404        1.9600446072        0.1003396398
 C          3.7472741379        0.2452659373       -0.6114475898
 C          2.3771909354        0.3836047270       -0.5236200825
 C         -0.7657632768       -1.4048718705       -1.0902231308
 C         -2.1346837477       -1.2532977637       -1.0132058749
 H         -8.0736436750        5.8643495075       -1.9330881556
 H         -6.3748681322        5.4021930468       -1.9810772505
 H         -7.5968128252        4.3164071001       -2.6379462394
 H         -9.2000368263        3.4969016968        0.6544792339
 H         -9.6457704815        4.8436969602       -0.3870712585
 H         -9.3250284061        3.2663670061       -1.0987784416
 H         -7.8750417518        6.2042517065        0.6049264688
 H         -6.1842641474        5.7115429698        0.5476387273
 H         -7.3060889290        4.8723522384        1.6160088565
 H         -4.8676243677        4.3722031080       -0.7082650003
 H         -3.2522099679        2.5606673650       -0.5840615038
 H         -8.1091270946        1.6436968176       -0.0713269910
 H         -8.3788912174       -0.9593914906        0.3078111077
 H        -10.5393870344       -3.7475212418        0.8139984478
 H         -9.8221435318       -2.2704217314        1.4465741631
 H         -9.9074674639       -2.5428062817       -0.3032244952
 H         -9.2143554434       -5.4767784260       -0.2675933692
 H         -7.4589149565       -5.3782724280       -0.3737227019
 H         -8.4577030743       -4.3279117863       -1.3753979228
 H         -9.0797089194       -5.0634487991        2.2619707150
 H         -7.3243224186       -4.9692192873        2.1451899694
 H         -8.2274219496       -3.6375230484        2.8624726917
 H         -5.7657648563       -4.3370958121        0.6538651955
 H         -3.8148268703       -2.9249323938        0.3251732448
 H         -2.2644361605        1.2864498534        1.2144276446
 H          0.1730026684        1.0364991262        1.0446787961
 H          1.4996990860       -2.8763228010       -0.4478667275
 H          3.9498601525       -3.1225835953       -0.6129928264
 H          8.7510582888        0.2155131446        1.7211418862
 H         11.0315344537        0.9623447334        2.2111047370
 H         12.8378904250        0.6105819921        0.5684350141
 H         12.3499415659       -0.5187521600       -1.5719742520
 H         10.0417403670       -1.2625718745       -2.0729863212
 H          5.3511230406       -0.1607499210        2.0408771377
 H          5.0428842710        1.9218193500        3.3322683964
 H          6.0804237122        4.0213852652        2.5543598341
 H          7.4263980225        4.0386048417        0.4862960608
 H          7.7294409904        1.9567865315       -0.8075825393
 H          4.3648122438        1.1273639585       -0.6922505636
 H          1.9428410553        1.3726404610       -0.5297383940
 H         -0.3493350584       -2.1525227614       -1.7489838334
 H         -2.7858998053       -1.8776454801       -1.6063586696
