  34
  -62.2996483000000        1.00000000000000      !
 Br         5.1071020386       -1.0387995366        0.0066038176
 C          3.9241429930        0.4731396150        0.0096364555
 C          4.4670124440        1.7491097529        0.0155954883
 C          3.5539294469        2.8138040056        0.0095525750
 C          2.2080719978        2.5525939923        0.0007079998
 C          1.7698352608        1.2057903664       -0.0037563214
 C          0.4082468470        0.8534469831        0.0021366971
 N         -0.6430056995        1.6850789857       -0.0072112756
 C         -1.7273218019        0.9158784986       -0.0639835738
 C         -3.0984286476        1.3119537656       -0.0367348073
 C         -3.5227305804        2.6346919463       -0.0243545279
 C         -4.8818462357        2.9201595551        0.0330740467
 C         -5.7711242467        1.8527012594        0.0424714994
 N         -5.3765122607        0.6028250828        0.0461896864
 C         -4.0826661107        0.2793996695        0.0138402717
 C         -3.7060029538       -1.1034296646       -0.0071569217
 N         -4.6515634171       -2.0356542744       -0.0030622503
 C         -4.3734580615       -3.3045955655        0.0083912702
 C         -3.0449819261       -3.7862269213        0.0527804433
 C         -2.0271635186       -2.8754465055       -0.0175105867
 C         -2.3099983751       -1.4942534373       -0.0568786181
 C         -1.3670472676       -0.4686692173       -0.0716967715
 N         -0.0094481158       -0.4720276774        0.0073481172
 N          2.6584716581        0.1761338670       -0.0036905796
 H          5.5322183163        1.9059463310        0.0182865022
 H          3.9226467215        3.8283105949        0.0139377781
 H          1.4636387915        3.3308395016        0.0048299733
 H         -2.7796332968        3.4159169162       -0.0742529014
 H         -5.2438281476        3.9348815354        0.0536282269
 H         -6.8411830101        2.0097344871        0.0535604405
 H         -5.2114981259       -3.9854305026       -0.0356718985
 H         -2.8576615660       -4.8469123857        0.0863981016
 H         -0.9975871849       -3.2023569615       -0.0653123318
 H          0.6298693532       -1.2473997136       -0.0100965125
