  66
        -98.85597986
 C         -3.5632207696       -3.9446755133       -0.1834999622
 C         -3.5540443340       -3.1400161894        0.9429660691
 C         -2.7689972779       -2.0023684205        0.9770913962
 C         -1.9800537543       -1.6586314363       -0.1148594007
 C         -1.1508394420       -0.4319320433       -0.0783217528
 C         -1.7820095820        0.8029489796        0.0187757528
 C         -3.2352267434        0.8953197142        0.1865765089
 C         -4.1155392416        0.2753076568       -0.6998270811
 C         -5.4806420437        0.3558309620       -0.5054936541
 C         -5.9941248474        1.0504418027        0.5776610348
 C         -5.1298495869        1.6764797744        1.4614689489
 C         -3.7644554122        1.6064272614        1.2652115888
 C         -1.0032426549        2.0124781732       -0.1002583444
 C         -1.6067729617        3.2619239437       -0.2436442907
 C         -0.8495227206        4.4177770265       -0.3676934069
 C          0.5461952710        4.3660540836       -0.3348107409
 C          1.3499181092        5.5361750952       -0.4448890637
 C          2.7283345507        5.4505016943       -0.4212190995
 C          3.3581270370        4.2322506663       -0.2751282171
 C          2.5978864749        3.0326329294       -0.1502051473
 C          3.1959410959        1.7972826289        0.0627692005
 C          2.4436078923        0.6141177889        0.1751214153
 C          3.1576618402       -0.5904455083        0.6106996992
 C          4.3471211383       -0.9850745979        0.0018402247
 C          5.0369064492       -2.0915637038        0.4586170151
 C          4.5642381842       -2.8084025037        1.5446532567
 C          3.3964125230       -2.4087298372        2.1743382744
 C          2.6987809132       -1.3112443675        1.7127446045
 C          1.0532798298        0.6568227651       -0.0250167349
 C          0.2431718485       -0.5302880185       -0.1604982653
 C          0.8673564602       -1.8088450512       -0.4990475265
 C          0.6011279066       -2.9819489768        0.2082970759
 C          1.1840358486       -4.1755456884       -0.1672481858
 C          2.0304836656       -4.2288965073       -1.2619465375
 C          2.2956462504       -3.0723617158       -1.9781141886
 C          1.7252855145       -1.8750026539       -1.5992838576
 C          0.4123254581        1.9228610670       -0.1126924308
 C          1.1805205821        3.1070706441       -0.1963556814
 C         -1.9944757587       -2.4715701325       -1.2430513186
 C         -2.7826206637       -3.6067537672       -1.2760613414
 H         -4.1776448756       -4.8324225092       -0.2102834770
 H         -4.1622789692       -3.3977713254        1.7971818998
 H         -2.7621044118       -1.3748109943        1.8564058673
 H         -3.7234613004       -0.2551938528       -1.5540511832
 H         -6.1491034982       -0.1255043359       -1.2044634824
 H         -7.0615417931        1.1066590633        0.7308620775
 H         -5.5226830819        2.2197745771        2.3087510932
 H         -3.0914081909        2.0838035183        1.9633894289
 H         -2.6833625513        3.3306171106       -0.2732292671
 H         -1.3416598450        5.3714744290       -0.4912437332
 H          0.8595685294        6.4926035672       -0.5455660771
 H          3.3201565475        6.3502698096       -0.5116254842
 H          4.4352639834        4.1668414894       -0.2465459549
 H          4.2682588815        1.7418806787        0.1816802481
 H          4.7131466125       -0.4370719194       -0.8543617276
 H          5.9487728181       -2.3963164620       -0.0338857960
 H          5.1060539656       -3.6707451440        1.9033022986
 H          3.0312309507       -2.9552380660        3.0318003414
 H          1.7956709505       -0.9911495727        2.2124476071
 H         -0.0418964434       -2.9487378471        1.0744894321
 H          0.9778769667       -5.0717245577        0.3994285850
 H          2.4817137009       -5.1647716000       -1.5558145218
 H          2.9490961780       -3.1072027543       -2.8377713549
 H          1.9252767189       -0.9762446141       -2.1652777556
 H         -1.3908700802       -2.2056805821       -2.0988248339
 H         -2.7870925181       -4.2308430933       -2.1578455156
  66
        -98.85475024
 C         -3.5708324999       -3.9257635117       -0.1488383734
 C         -3.6253179831       -3.0698736800        0.9378675318
 C         -2.8428147248       -1.9305655517        0.9640608477
 C         -1.9916479854       -1.6354783169       -0.0950650692
 C         -1.1621582623       -0.4078677655       -0.0630182813
 C         -1.7990002139        0.8276464104       -0.0159457196
 C         -3.2608511882        0.9107672132        0.0306546046
 C         -4.0477439772        0.2882508015       -0.9391709891
 C         -5.4253673759        0.3623268774       -0.8807693016
 C         -6.0461969327        1.0522998652        0.1480117627
 C         -5.2760092561        1.6748469603        1.1172847873
 C         -3.8975732573        1.6105099959        1.0577261979
 C         -1.0102526678        2.0340471048       -0.0611131826
 C         -1.6138916309        3.2861782173       -0.1786355651
 C         -0.8618277802        4.4516390351       -0.2103393957
 C          0.5299354796        4.3994100033       -0.1332753720
 C          1.3272049449        5.5808023461       -0.1455616202
 C          2.7045227683        5.5053485629       -0.0909744478
 C          3.3386628779        4.2828134344       -0.0229034248
 C          2.5828869451        3.0731095411       -0.0004648554
 C          3.1903797153        1.8303731262        0.0986830953
 C          2.4528679267        0.6330239826        0.1349279493
 C          3.2607511791       -0.5774169009        0.3552101233
 C          4.2962223920       -0.8840512703       -0.5247817865
 C          5.1028558717       -1.9841292138       -0.3067876347
 C          4.9051794523       -2.7790849368        0.8091464501
 C          3.9022583103       -2.4603212952        1.7096055672
 C          3.0872389997       -1.3672965002        1.4882102681
 C          1.0540983249        0.6690987943        0.0101253777
 C          0.2311452071       -0.5147355982       -0.0824909304
 C          0.8063777502       -1.8557327555       -0.2365687423
 C          0.5167163613       -2.8632088383        0.6832052354
 C          1.0170827300       -4.1379419695        0.5111023160
 C          1.8033408836       -4.4351931682       -0.5892437980
 C          2.0842604301       -3.4462836720       -1.5177131002
 C          1.5916561836       -2.1682755278       -1.3450324258
 C          0.4066066608        1.9402408435       -0.0352590618
 C          1.1661929594        3.1349484991       -0.0541256662
 C         -1.9447020085       -2.4988284659       -1.1841202827
 C         -2.7301022744       -3.6358800619       -1.2100584533
 H         -4.1821441001       -4.8159147018       -0.1689962297
 H         -4.2800966136       -3.2904177780        1.7684040913
 H         -2.8843300411       -1.2650032243        1.8144225779
 H         -3.5701341982       -0.2371657601       -1.7520939762
 H         -6.0194117413       -0.1192834980       -1.6438159831
 H         -7.1236927443        1.1054001340        0.1941862730
 H         -5.7533506525        2.2105800253        1.9250732910
 H         -3.2995623377        2.0837700313        1.8238765716
 H         -2.6880412950        3.3514172255       -0.2548219762
 H         -1.3551899929        5.4086493923       -0.2964926041
 H          0.8292603032        6.5371302954       -0.1975229668
 H          3.2907640085        6.4131582800       -0.1016621681
 H          4.4152421846        4.2188381985        0.0205083411
 H          4.2663330769        1.7719557614        0.1798965622
 H          4.4474563197       -0.2665323877       -1.3990931541
 H          5.8900581959       -2.2203371958       -1.0081767140
 H          5.5354700079       -3.6388715916        0.9809545818
 H          3.7561514374       -3.0676787770        2.5908137327
 H          2.3113702076       -1.1146457145        2.1961710228
 H         -0.0861604006       -2.6336854159        1.5493175746
 H          0.7921209346       -4.9038981274        1.2390400542
 H          2.1928867507       -5.4330685860       -0.7248003547
 H          2.6881280521       -3.6753065601       -2.3837375239
 H          1.7994956077       -1.4023779919       -2.0786928318
 H         -1.2932056828       -2.2726091545       -2.0157961186
 H         -2.6841168439       -4.2997846408       -2.0611163990
  66
        -98.85412277
 C         -3.5661655873       -3.9130356977       -0.2197910975
 C         -3.6328348547       -3.0774997993        0.8818249202
 C         -2.8504992462       -1.9391014050        0.9383717148
 C         -1.9871031366       -1.6253584324       -0.1048692108
 C         -1.1595144562       -0.3970940957       -0.0494105780
 C         -1.7972522303        0.8374828151        0.0007250904
 C         -3.2609714477        0.9106164651        0.0124486189
 C         -4.0102440477        0.3189044724       -1.0050494331
 C         -5.3897252934        0.3748291349       -0.9859738915
 C         -6.0491773514        1.0142731842        0.0513346508
 C         -5.3162714077        1.6053637327        1.0679054290
 C         -3.9356432571        1.5603077271        1.0472541506
 C         -1.0081475470        2.0434032961       -0.0131874715
 C         -1.6132648154        3.2980790184       -0.0886846550
 C         -0.8612236042        4.4639519567       -0.1094443437
 C          0.5316699692        4.4088853171       -0.0710163042
 C          1.3292905940        5.5906047952       -0.0895234701
 C          2.7074745929        5.5143393551       -0.0777257470
 C          3.3423325945        4.2908127645       -0.0439720352
 C          2.5863660433        3.0809197427       -0.0129609105
 C          3.1964329680        1.8377010998        0.0534246166
 C          2.4601405655        0.6398800063        0.1032880743
 C          3.2784968566       -0.5709893773        0.2811024129
 C          4.2638249903       -0.8777883118       -0.6544738525
 C          5.0815835930       -1.9776031569       -0.4804785699
 C          4.9461243497       -2.7714938547        0.6454726141
 C          3.9953856095       -2.4514079812        1.6004426621
 C          3.1696202133       -1.3582503419        1.4238921946
 C          1.0583375487        0.6759482933        0.0202256242
 C          0.2326641914       -0.5062837186       -0.0525015829
 C          0.7918444382       -1.8613845935       -0.1494680405
 C          0.5093984041       -2.8046283098        0.8373410082
 C          0.9863845539       -4.0957831337        0.7334434551
 C          1.7393117304       -4.4728982228       -0.3654499999
 C          2.0086514079       -3.5489962728       -1.3616058555
 C          1.5396175741       -2.2545183329       -1.2570363976
 C          0.4093193450        1.9478164821       -0.0063271320
 C          1.1686531688        3.1429554596       -0.0269557691
 C         -1.9267536174       -2.4691878972       -1.2083616451
 C         -2.7121372117       -3.6048875168       -1.2650610421
 H         -4.1788558413       -4.8013181122       -0.2644998173
 H         -4.2982665759       -3.3128006655        1.6997276354
 H         -2.9033843155       -1.2883818365        1.7995306150
 H         -3.5009289347       -0.1694824620       -1.8219587410
 H         -5.9547971068       -0.0821785976       -1.7852525834
 H         -7.1281998284        1.0516910719        0.0676067109
 H         -5.8246167355        2.1008874540        1.8824769373
 H         -3.3665662640        2.0074072282        1.8502514038
 H         -2.6886818919        3.3645577279       -0.1421277044
 H         -1.3553928817        5.4229912412       -0.1617864048
 H          0.8303636011        6.5474825660       -0.1146898472
 H          3.2937353695        6.4220593213       -0.0940931979
 H          4.4196553634        4.2255502687       -0.0337538736
 H          4.2744656151        1.7781513996        0.0986059475
 H          4.3658636751       -0.2607349190       -1.5363028381
 H          5.8287073419       -2.2144486493       -1.2242353641
 H          5.5849452476       -3.6312070740        0.7826996284
 H          3.8985186556       -3.0575955640        2.4891718259
 H          2.4374725640       -1.1023134722        2.1756607026
 H         -0.0710168010       -2.5115124230        1.6999291251
 H          0.7699732832       -4.8109693011        1.5137626584
 H          2.1123407152       -5.4829299597       -0.4470247132
 H          2.5860492612       -3.8414208650       -2.2265483727
 H          1.7413325220       -1.5385332500       -2.0409919841
 H         -1.2654648412       -2.2274740219       -2.0278255897
 H         -2.6577307350       -4.2519774304       -2.1284203559
  66
        -98.85305387
 C         -3.5957516342       -3.8913345878       -0.3086028129
 C         -3.3338971782       -3.2358667251        0.8818994471
 C         -2.5232095783       -2.1155255598        0.8941268919
 C         -1.9629009821       -1.6414594359       -0.2842509717
 C         -1.1153018150       -0.4226078151       -0.2552708176
 C         -1.7468479113        0.8125641260       -0.2956374407
 C         -3.2113926315        0.8742581133       -0.3749823332
 C         -3.9004912188        0.3815082211       -1.4813682513
 C         -5.2811663315        0.4155241258       -1.5218321083
 C         -5.9991226259        0.9363348449       -0.4581265332
 C         -5.3247191424        1.4338748964        0.6454888360
 C         -3.9444293937        1.4078190680        0.6858791204
 C         -0.9827359059        2.0215602311       -0.1103354624
 C         -1.5826285005        3.2803355929       -0.1452933010
 C         -0.8427409372        4.4361674806        0.0566488132
 C          0.5391643348        4.3761321477        0.2551739201
 C          1.3244956522        5.5440234474        0.4674211527
 C          2.6909522906        5.4528507037        0.6466162755
 C          3.3293648753        4.2310462542        0.6008230513
 C          2.5891540886        3.0335617222        0.3796349173
 C          3.2068198130        1.7944248166        0.2616969626
 C          2.4736843221        0.6180271481        0.0306422248
 C          3.2325735430       -0.5925205604       -0.3032815510
 C          2.9355999024       -1.3049028327       -1.4641343139
 C          3.6786644482       -2.4128241081       -1.8179893745
 C          4.7308870442       -2.8308786435       -1.0192202955
 C          5.0432960901       -2.1226081349        0.1285598013
 C          4.3087569889       -1.0058845226        0.4786328049
 C          1.0702629243        0.6640635755        0.0302635229
 C          0.2552991215       -0.5284983382        0.0044803379
 C          0.8049744144       -1.7970011526        0.4811173851
 C          1.4620769256       -1.8192464289        1.7149676806
 C          1.9584933922       -2.9973584483        2.2310218542
 C          1.8185218936       -4.1822179183        1.5250488750
 C          1.1721336760       -4.1734277581        0.3007263855
 C          0.6642476533       -2.9977178802       -0.2151577618
 C          0.4231669223        1.9293800837        0.0589990210
 C          1.1793729482        3.1123341120        0.2293480153
 C         -2.2274019268       -2.3060873580       -1.4752734307
 C         -3.0403017713       -3.4245481685       -1.4875541046
 H         -4.2310625651       -4.7646430291       -0.3182350889
 H         -3.7649437915       -3.5968796881        1.8042190633
 H         -2.3190684542       -1.6008853129        1.8220394703
 H         -3.3467845085       -0.0076881960       -2.3215122811
 H         -5.8007674201        0.0349334234       -2.3891640334
 H         -7.0783212074        0.9568195060       -0.4890579467
 H         -5.8785082281        1.8406209541        1.4793263153
 H         -3.4199250748        1.7810772870        1.5540402582
 H         -2.6429302877        3.3561974047       -0.3319645155
 H         -1.3365899871        5.3969146802        0.0575725252
 H          0.8308444665        6.5039622711        0.4794411163
 H          3.2685721224        6.3513351737        0.8113918669
 H          4.3999287036        4.1622489642        0.7208894736
 H          4.2844716430        1.7335835939        0.3066363438
 H          2.1214815424       -0.9722156931       -2.0920003901
 H          3.4396827407       -2.9538498787       -2.7220694614
 H          5.3075730952       -3.7015996946       -1.2935836226
 H          5.8644099650       -2.4422504827        0.7537505456
 H          4.5482684774       -0.4639645267        1.3822551677
 H          1.5637209268       -0.8992346256        2.2731172907
 H          2.4552457570       -2.9957596273        3.1905422642
 H          2.2116664929       -5.1039905496        1.9268718964
 H          1.0659576619       -5.0907708270       -0.2600016249
 H          0.1879556257       -3.0039466533       -1.1822281825
 H         -1.7897974136       -1.9453202849       -2.3965189279
 H         -3.2409353492       -3.9340188990       -2.4190752799
  66
        -98.85288645
 C         -3.5305214224       -3.9380873576       -0.2053743910
 C         -2.7700335511       -3.6699116848        0.9199786505
 C         -2.0029078099       -2.5218987227        0.9831007534
 C         -1.9862318292       -1.6265480107       -0.0803776886
 C         -1.1679103443       -0.3920136553       -0.0243849079
 C         -1.8041586809        0.8444749341       -0.1069902935
 C         -3.2605078138        0.9156287622       -0.2254317030
 C         -3.8615072249        1.6088338770       -1.2789405658
 C         -5.2365488409        1.6534078909       -1.3996341579
 C         -6.0407437324        1.0164578111       -0.4677763503
 C         -5.4566146897        0.3303763279        0.5850850507
 C         -4.0824704471        0.2757439890        0.7046666203
 C         -1.0136712709        2.0492002625       -0.0529986152
 C         -1.6191054284        3.3054648362       -0.0202766890
 C         -0.8671390317        4.4720056851        0.0033032116
 C          0.5253301044        4.4153452671        0.0229713816
 C          1.3237816814        5.5971021202        0.0327230319
 C          2.7005865150        5.5203982956        0.0834189654
 C          3.3333432293        4.2959707297        0.1339666703
 C          2.5767077855        3.0866527385        0.1204092349
 C          3.1858145764        1.8416203617        0.1649152017
 C          2.4516561385        0.6433059978        0.1291543656
 C          3.2896665338       -0.5708540341        0.1582250280
 C          3.4322078584       -1.3928569672       -0.9546329156
 C          4.2835029820       -2.4806643918       -0.9133759948
 C          5.0138380353       -2.7549167259        0.2308705962
 C          4.9036024113       -1.9225956092        1.3313860439
 C          4.0570884345       -0.8312405759        1.2905801648
 C          1.0498108465        0.6798906835        0.0749763848
 C          0.2180085578       -0.5007501764        0.0747833281
 C          0.7677107993       -1.8655027866        0.1318980465
 C          1.3560919981       -2.3653706275        1.2900097979
 C          1.8102264660       -3.6689569332        1.3368874358
 C          1.6808038788       -4.4941265574        0.2323572851
 C          1.0821342045       -4.0110809386       -0.9183889134
 C          0.6214073936       -2.7102582374       -0.9659438703
 C          0.4021045973        1.9524002082        0.0213665964
 C          1.1610057622        3.1478447452        0.0520353550
 C         -2.7565111370       -1.9007761038       -1.2048835188
 C         -3.5224320543       -3.0497444175       -1.2670280356
 H         -4.1287232087       -4.8359799117       -0.2542068357
 H         -2.7751689484       -4.3576701197        1.7530838050
 H         -1.4171397871       -2.3120139851        1.8661440737
 H         -3.2374938500        2.0878543162       -2.0202420383
 H         -5.6852411321        2.1851137699       -2.2263977483
 H         -7.1157272129        1.0550351800       -0.5617246267
 H         -6.0772407278       -0.1636190051        1.3184713974
 H         -3.6340295449       -0.2481605669        1.5350567805
 H         -2.6954916653        3.3746805989       -0.0075483490
 H         -1.3624247876        5.4318736917        0.0098771387
 H          0.8255463934        6.5541383438        0.0008489058
 H          3.2877265747        6.4276708213        0.0880057356
 H          4.4096235484        4.2295937344        0.1804989367
 H          4.2638794022        1.7796159007        0.2094718133
 H          2.8727961271       -1.1737699538       -1.8521730032
 H          4.3805409779       -3.1175149985       -1.7803504445
 H          5.6742779674       -3.6087759918        0.2613114929
 H          5.4809580800       -2.1216145699        2.2228189067
 H          3.9694733107       -0.1792415600        2.1486914944
 H          1.4462850846       -1.7273624533        2.1575096472
 H          2.2654782701       -4.0455355680        2.2412355173
 H          2.0409375112       -5.5114477236        0.2702212116
 H          0.9712032330       -4.6509151736       -1.7818732471
 H          0.1548953261       -2.3334502305       -1.8647795687
 H         -2.7487941622       -1.2102593568       -2.0360661296
 H         -4.1143776133       -3.2533549549       -2.1475535300
