  104
       -164.28470010
 O          0.0411071110        6.2695887668        0.2405455957
 C          0.0199032421        5.0610762450        0.1934585158
 C          1.1761981231        4.1316392036        0.1324744365
 C          2.5279487780        4.4111485207        0.1124122872
 C          3.4219314172        3.3516085510        0.0517316764
 C          2.9674456909        2.0362530955        0.0124187453
 N          3.9084812857        0.9832703245       -0.0482753166
 C          4.6847688187        0.8458520292       -1.1951943111
 C          4.3995316580        1.6046536292       -2.3335272783
 C          5.1584563482        1.4758322823       -3.4786799659
 C          6.2103303311        0.5770219885       -3.5212067688
 C          6.4786865780       -0.1992918858       -2.4099198258
 C          5.7263067469       -0.0824710599       -1.2504377584
 C          6.0722397143       -0.9505999765       -0.0667077195
 C          6.3255230783       -2.3819000325       -0.4920866174
 C          5.4431031302       -3.2666088935       -1.0712491951
 C          5.8937606537       -4.5418414908       -1.3858223300
 C          7.2026964054       -4.9166377245       -1.1237734539
 C          8.0938935090       -4.0298371516       -0.5405144148
 C          7.6498205422       -2.7568747657       -0.2237376902
 C          8.3355866567       -1.6263951539        0.3840888012
 C          9.6379348485       -1.4834833416        0.8327165284
 C         10.0214571427       -0.2690516777        1.3790301934
 C          9.1238062890        0.7830234188        1.4768723526
 C          7.8165614754        0.6451893006        1.0296556510
 C          7.4321198316       -0.5599177604        0.4858948034
 C          5.0366532834       -0.8709321747        1.0278926701
 C          5.1352691102       -1.7470812526        2.0986250678
 C          4.2709772373       -1.6687758040        3.1740476035
 C          3.3081269189       -0.6751303681        3.1923942358
 C          3.1950193413        0.2050954895        2.1353912322
 C          4.0369423735        0.1060641971        1.0245841690
 C          1.5969943104        1.7517603711        0.0240333669
 C          0.7106420468        2.8038075758        0.0845995710
 C         -0.7522202075        2.8287971955        0.1104032809
 C         -1.6767307319        1.8087571018        0.0750625520
 C         -3.0352059033        2.1421766730        0.1028971300
 N         -4.0089808186        1.1165730378        0.0485125025
 C         -4.7855266713        0.9871004846       -1.0980952299
 C         -4.5330158088        1.7861168849       -2.2166574283
 C         -5.2988442185        1.6690893700       -3.3584481952
 C         -6.3272117181        0.7445070238       -3.4174847766
 C         -6.5619156590       -0.0713723794       -2.3272702184
 C         -5.8016905563        0.0320525692       -1.1715351208
 C         -6.0957862912       -0.9086629784       -0.0290278305
 C         -6.0876970767       -2.3467275406       -0.5099379170
 C         -5.0347765479       -3.0629335277       -1.0339188669
 C         -5.2543562902       -4.3794583105       -1.4168243727
 C         -6.5056596724       -4.9598562317       -1.2763371160
 C         -7.5677845657       -4.2427777221       -0.7488483343
 C         -7.3541338669       -2.9298285887       -0.3634513790
 C         -8.2530579537       -1.9421606957        0.2148607880
 C         -9.5937403598       -2.0167041370        0.5536794699
 C        -10.2026698512       -0.8978880052        1.0996331433
 C         -9.4888234699        0.2728900512        1.3043982740
 C         -8.1445390569        0.3536640451        0.9660264709
 C         -7.5360333902       -0.7557165833        0.4229836196
 C         -5.1533374955       -0.7233155231        1.1339861656
 C         -5.2947534327       -1.5529009002        2.2366142611
 C         -4.4914139148       -1.4099091447        3.3518828309
 C         -3.5409873958       -0.4040072597        3.3729110908
 C         -3.3868812645        0.4313804691        2.2852961336
 C         -4.1741870844        0.2732580544        1.1414979807
 C         -3.4430610346        3.4708442402        0.1726303661
 C         -2.5104703240        4.4982923334        0.2116890600
 C         -1.1698970945        4.1715829199        0.1781715745
 H          2.8750277668        5.4321681978        0.1504807627
 H          4.4857907170        3.5360565781        0.0324508597
 H          3.5715828137        2.2970808033       -2.3226561691
 H          4.9204578373        2.0783866997       -4.3424473233
 H          6.8098817773        0.4756872369       -4.4124204902
 H          7.2889666257       -0.9132536004       -2.4338696846
 H          4.4235205196       -2.9740685021       -1.2765710068
 H          5.2169036903       -5.2501838502       -1.8404890299
 H          7.5316002224       -5.9137676028       -1.3780942162
 H          9.1124414060       -4.3263507619       -0.3381676123
 H         10.3407488930       -2.3001948374        0.7592855751
 H         11.0334341294       -0.1394505739        1.7343262239
 H          9.4450455484        1.7203369984        1.9068590534
 H          7.1170119208        1.4649686914        1.1088977274
 H          5.9129505567       -2.4967087778        2.0859865598
 H          4.3610804194       -2.3619480523        3.9958342263
 H          2.6412836836       -0.5770561125        4.0360006201
 H          2.4523577373        0.9864486160        2.1811936460
 H          1.2605444905        0.7268922543       -0.0245918328
 H         -1.3799981317        0.7721030296        0.0183627863
 H         -3.7247222781        2.5009034469       -2.1940001787
 H         -5.0848947774        2.3021580274       -4.2065919119
 H         -6.9323038951        0.6522714068       -4.3059287912
 H         -7.3500083979       -0.8092558140       -2.3657898746
 H         -4.0599532617       -2.6103145702       -1.1448401787
 H         -4.4410996297       -4.9582740499       -1.8294588097
 H         -6.6537219773       -5.9852723881       -1.5825410454
 H         -8.5406244064       -4.6992514545       -0.6412950864
 H        -10.1541726044       -2.9264408389        0.3965302806
 H        -11.2480877346       -0.9376012550        1.3692045246
 H         -9.9843962391        1.1321969559        1.7317460092
 H         -7.5882833629        1.2659906265        1.1265457103
 H         -6.0553030642       -2.3198642297        2.2141397934
 H         -4.6147445715       -2.0667472175        4.1988812302
 H         -2.9167506622       -0.2615921447        4.2424402345
 H         -2.6539919225        1.2225299657        2.3278400222
 H         -4.4999291904        3.6914958640        0.1924840561
 H         -2.8197470622        5.5304330695        0.2707131228
