104
 energy: -164.227091210508 gnorm: 0.000119386915 xtb: 6.7.1 (edcfbbe)
O           -0.03574407711825        6.24099532041469        0.49992419457257
C           -0.03193821020550        5.00081427530002        0.36505308720035
C            1.12214754122227        4.12540795319598        0.28121419305618
C            2.47663602980174        4.43629295752149        0.34399415040575
C            3.39619446376197        3.41503617697433        0.25259826638052
C            2.97407467662607        2.08466773697999        0.09934680498393
N            3.96457258796757        1.06134975192767        0.02870712145365
C            4.71483738701681        0.93939715002445       -1.12430739395527
C            4.41631681335474        1.72769169386334       -2.24337732731306
C            5.16246310219611        1.62384681345737       -3.39682966174647
C            6.21877989409726        0.72798863124581       -3.46863889722893
C            6.50669601627578       -0.06974447990710       -2.37711732255562
C            5.76694698275790        0.01848809860064       -1.20754646449389
C            6.12417065455598       -0.87746938078351       -0.05092713057967
C            6.22180268004610       -2.32409884187933       -0.49785431473833
C            5.22621959485472       -3.12192264765751       -1.01570348943049
C            5.53961548885938       -4.42989644585491       -1.36160464440480
C            6.82476557181383       -4.92090994336126       -1.18980731984360
C            7.82921749731030       -4.12047768545423       -0.66915217605728
C            7.52305248867191       -2.81511281189080       -0.32222034333635
C            8.34630490953205       -1.75362090340097        0.23731921030652
C            9.68439852911008       -1.72796795592740        0.59357802688106
C           10.20950488751968       -0.55577742853450        1.11386360812572
C            9.41642689929561        0.56978780231235        1.27635197871641
C            8.07409258502807        0.55055623065145        0.92117393992867
C            7.54996272970764       -0.61255862200152        0.40359424240118
C            5.17826328380784       -0.73051034597365        1.11218709471519
C            5.34575277199333       -1.55319528922139        2.21594901843083
C            4.53905425196091       -1.42952983916927        3.33138658501418
C            3.55597918571588       -0.45174630573526        3.35324614372704
C            3.37316331524933        0.37542960916516        2.26675291452143
C            4.16825829377118        0.24075242067797        1.12109551037627
C            1.62854055048288        1.75694921017986        0.03212236514331
C            0.69113953720522        2.77190911648204        0.12969365985483
C           -0.74122646240036        2.76786027373101        0.12654753169102
C           -1.67244739497605        1.74756850319986        0.02557812402445
C           -3.02005199715513        2.06769217209792        0.08677407548184
N           -4.00276378567151        1.03696252669098        0.01322342515081
C           -4.74607648366474        0.90525067422186       -1.14310496862348
C           -4.45844735849120        1.70310194327939       -2.25828244118540
C           -5.19916946218434        1.59044987522435       -3.41438916084995
C           -6.23928202907528        0.67635377942279       -3.49283923624801
C           -6.51555179151814       -0.13116551009137       -2.40554537694976
C           -5.78093155918507       -0.03440385274504       -1.23339216734828
C           -6.11942577775352       -0.94907204439511       -0.08578359667199
C           -6.14046727065941       -2.39642478857459       -0.54196174417978
C           -5.09897168071747       -3.14316146827218       -1.04534151394401
C           -5.34393779019646       -4.46220345133270       -1.40409950097103
C           -6.60750499359217       -5.01407676997555       -1.25906991358333
C           -7.65796127370032       -4.26506004084872       -0.75294404854362
C           -7.42010082760238       -2.94896545125220       -0.39323400471698
C           -8.30246163176626       -1.93074336865575        0.15656405307812
C           -9.64650790989399       -1.97036834207672        0.48827855743612
C          -10.23568967012878       -0.82743138293577        1.00503780952368
C           -9.49965460672782        0.33321001098102        1.18794241997294
C           -8.15168428078398        0.37944264491901        0.85735616261518
C           -7.56380459546211       -0.75447583820975        0.34341828232342
C           -5.19977480535759       -0.76824877397249        1.09344198345880
C           -5.36902897475042       -1.58441694360606        2.20179577139335
C           -4.58146984803868       -1.43677246067736        3.32791618613137
C           -3.61556844507862       -0.44210600675446        3.35527732710318
C           -3.43128618725710        0.37885778397673        2.26437022922190
C           -4.20747384321169        0.22086706427052        1.10871109041773
C           -3.45053303539260        3.39558562912326        0.23803568183574
C           -2.53713118013481        4.42205477577494        0.33301118619245
C           -1.18061638438089        4.11885558594056        0.27603430869697
H            2.79354822786307        5.46058564626763        0.46540798204770
H            4.45544461199146        3.62139655513333        0.30133148325060
H            3.59030628107649        2.41986949511940       -2.19837697779611
H            4.91718990270093        2.24379342906647       -4.24578331378235
H            6.80794878475717        0.64782009001095       -4.36888446850146
H            7.32096668895959       -0.77800146974877       -2.42549528229827
H            4.22478144881137       -2.73952274238222       -1.15021979331228
H            4.77295537201054       -5.07198059522870       -1.76939096415127
H            7.04545333298060       -5.94164398019514       -1.46600907641013
H            8.82877353449843       -4.50722498158005       -0.53728402831189
H           10.30596028080514       -2.60226813590352        0.46954609762851
H           11.25108094416581       -0.51773486965434        1.39761319857262
H            9.84715655927779        1.47208447250311        1.68439769589552
H            7.45648894113326        1.42766094727431        1.04956707287853
H            6.12768658078224       -2.29825277049744        2.19520167090551
H            4.68270563374437       -2.08071798572918        4.17950548084540
H            2.92936387398693       -0.33051906521161        4.22388281563905
H            2.61353209039305        1.14026221661212        2.29880512041696
H            1.32796157037146        0.72557430728468       -0.08634809533315
H           -1.36563613252270        0.71774003168755       -0.09028343996017
H           -3.64511830624980        2.40977748550824       -2.20821155843138
H           -4.96232361370937        2.21784172346294       -4.26026334093585
H           -6.82418376004530        0.58914458960122       -4.39520541500003
H           -7.31600657668111       -0.85462101381122       -2.45952397958408
H           -4.11436773067422       -2.71323423438065       -1.15914115120366
H           -4.54049470575506       -5.06494472855867       -1.80097608995575
H           -6.77474534698311       -6.04226549207581       -1.54496637164668
H           -8.64043782505269       -4.69921623786258       -0.64192950288769
H          -10.22374256095576       -2.87218971935417        0.34814839574313
H          -11.28287179038916       -0.84022433053813        1.26976098290947
H           -9.97982295197743        1.21167846697951        1.59278114860625
H           -7.57856404036943        1.28383108966949        1.00163438231875
H           -6.13668094810268       -2.34402780591610        2.17565128195542
H           -4.72611943318116       -2.08318726840053        4.17950814476803
H           -3.00362566140536       -0.30287854514540        4.23362445617882
H           -2.68525783216666        1.15681788875789        2.30033416648295
H           -4.51113584659840        3.59580528683788        0.28270572685388
H           -2.86029634462735        5.44455967715672        0.45304025854125
