104
 energy: -164.284793835390 gnorm: 0.000035440302 xtb: 6.7.1 (edcfbbe)
O           -0.06097342447981        6.55147437888005        0.01874922816057
C           -0.04291714985078        5.34195164854531        0.01866967439602
C            1.14202943553400        4.44915956412796       -0.05380828105900
C            2.48130993324815        4.77136925743142       -0.14272711269206
C            3.40847676671816        3.73988043810523       -0.19950949789493
C            2.99711531078075        2.41044557168613       -0.17143689637860
N            3.96098877039103        1.37716550337180       -0.23226981618107
C            4.69038475811319        1.19812072137899       -1.40354585113013
C            4.40978741450891        1.96630868200467       -2.53695964595278
C            5.13064424876377        1.80110532611157       -3.70186807814558
C            6.14091599197039        0.85735499873789       -3.77005780895822
C            6.40026338190587        0.06929396885813       -2.66519693439691
C            5.68486246090938        0.22103161027456       -1.48631108462895
C            5.99758328331911       -0.69945322909805       -0.33310256823117
C            5.90984861852753       -2.14905752835559       -0.77021600379693
C            4.80856720369259       -2.83292584621230       -1.23451272782804
C            4.95592976474209       -4.16981384562223       -1.57976760410747
C            6.18397264881353       -4.80216521117487       -1.46022251079954
C            7.29493315761378       -4.11728167760783       -0.99404996173594
C            7.15383960116989       -2.78374836522495       -0.64807913130202
C            8.11637923369022       -1.81896163331916       -0.13751111862842
C            9.46427805831053       -1.94287588243359        0.15515177496369
C           10.14218471822693       -0.83490145905327        0.63821452859067
C            9.48893306373961        0.37349581157455        0.82639935183972
C            8.13762191140732        0.50361127060074        0.53474705334976
C            7.46069733377944       -0.59483738255638        0.05393065085758
C            5.11859441145388       -0.44777115428478        0.86664950795515
C            5.29587586668580       -1.24013729210686        1.99141569854254
C            4.55482033125493       -1.03550935358657        3.13952591006261
C            3.63415605125988       -0.00258358088798        3.17105030020954
C            3.44495200814869        0.79581233456086        2.06149205253404
C            4.16464110064465        0.57261504068090        0.88420646879916
C            1.63956349650221        2.08217759699233       -0.08468413349041
C            0.72102208723483        3.10602704479951       -0.02442090273684
C           -0.73912694702884        3.08415467095161        0.06366206760774
C           -1.62632304800786        2.03295423197039        0.12316448896361
C           -2.99361461682087        2.32005107594194        0.20460440989966
N           -3.92932697921949        1.26152697840455        0.26223323026626
C           -4.09845600398180        0.43767154394948       -0.84624550952205
C           -3.34896674385736        0.64324178786648       -2.00794731129610
C           -3.50252482006298       -0.17789926935033       -3.10642949941936
C           -4.41605613808701       -1.21716453118612       -3.07954309427143
C           -5.18869987941700       -1.40302332790434       -1.94919217510525
C           -5.04787289849213       -0.58741270360968       -0.83596735493173
C           -5.97322769423670       -0.80694710869656        0.33494535193306
C           -5.97926969454559       -2.26153762880494        0.76146051173238
C           -4.93260239017833       -3.00815046082713        1.25471096063109
C           -5.16463423012504       -4.33654852232134        1.58602308927259
C           -6.42159945891647       -4.89890843149471        1.42452293608806
C           -7.47779379399719       -4.15092551740443        0.92882678858566
C           -7.25221157465065       -2.82556299590663        0.59646850615300
C           -8.14336027968237       -1.80604834473109        0.06312672566746
C           -9.48590182566288       -1.85335123133714       -0.27329076221727
C          -10.08558737926393       -0.70695834988272       -0.76992741092380
C           -9.36086035476551        0.46430549457215       -0.92886295229740
C           -8.01462511678563        0.51769419243515       -0.59311771157923
C           -7.41557592367380       -0.61911527662726       -0.09845071180616
C           -5.65326000222028        0.09096469902026        1.50374017157668
C           -6.36861681827128       -0.07329628808180        2.68095408489433
C           -6.10964251189307        0.70380002724649        3.79366445270640
C           -5.10084409430998        1.64980219276874        3.73484975631847
C           -4.38023519968614        1.82737915194038        2.57164035909933
C           -4.66027129259366        1.07008777950376        1.43078857409175
C           -3.44452163982540        3.63675520295577        0.23247755568497
C           -2.54893966853292        4.69570062754868        0.17801931407952
C           -1.20034914810473        4.41404380260047        0.09096122781060
H            2.79461286195528        5.80385463664028       -0.16014566866981
H            4.46390192026368        3.95810758385107       -0.26718393587992
H            3.61411835297926        2.69480673230583       -2.50827431537729
H            4.89578711427514        2.41193299230429       -4.56071000324302
H            6.71135729326899        0.72794889185339       -4.67658876427687
H            7.17176698137156       -0.68559702564865       -2.71000350102827
H            3.85154422889296       -2.34025630507315       -1.32872660002972
H            4.10391943717182       -4.72365357858162       -1.94582503807922
H            6.27523831074525       -5.84310488541212       -1.73458770442754
H            8.24948824663825       -4.61412280193586       -0.90293147050995
H            9.97738587090006       -2.88214432200814        0.01066991712836
H           11.19405234401322       -0.91297123245363        0.87190047195317
H           10.03779085976492        1.22341038480346        1.20454553748572
H            7.62859957998072        1.44516557892408        0.68271878059175
H            6.03480346634318       -2.02755985130212        1.95959143181831
H            4.70440183267157       -1.66471106258115        4.00306935630604
H            3.06094986123880        0.19036334329609        4.06559582133672
H            2.73759193194371        1.60916419752445        2.11360284807623
H            1.33842428651398        1.04534850042686       -0.07027214673618
H           -1.29324664604142        1.00588455498926        0.11332968066217
H           -2.64678959870507        1.46108862172890       -2.05818303990139
H           -2.90674904283468        0.00226534244761       -3.98881767054272
H           -4.53745089332791       -1.86434406663439       -3.93417401127868
H           -5.92543557891832       -2.19269886881745       -1.92344453233401
H           -3.95322731977229       -2.56983099166125        1.38166106320003
H           -4.35650753883355       -4.93881571914572        1.97440766300169
H           -6.57909441479696       -5.93443145597374        1.68916894875124
H           -8.45516919963487       -4.59335904713624        0.80510190590106
H          -10.05461154025632       -2.76342343099425       -0.15205787163572
H          -11.13204865442913       -0.72533151695160       -1.03769289933142
H           -9.84932699965319        1.34523159515210       -1.31871405599946
H           -7.44973534850376        1.43023635136484       -0.71865115645639
H           -7.14061497348715       -0.82807051463750        2.71786446076718
H           -6.68020867253316        0.56498506442894        4.69872688016037
H           -4.86695345639099        2.25243334467681        4.59970844706689
H           -3.58552445504352        2.55722991288898        2.54948513340857
H           -4.50613292372140        3.82306482594093        0.29890709757595
H           -2.89329220571850        5.71824442262502        0.19511734057202
