  54
        -77.91311322
 N          2.3599324924       -4.4008406711        0.6179368531
 C          2.6095656590       -3.2745934232        0.6208320684
 C          2.8818043342       -1.9097272420        0.6065842793
 C          3.7962746360       -1.3535914243       -0.3249915722
 C          3.9829017806       -0.0182323847       -0.3995785675
 C          3.1852533306        0.9512239847        0.3960748858
 C          4.0348169620        2.1492942859        0.8531679094
 C          4.0938781619        3.1313807602       -0.3254523087
 C          2.9994756151        2.7017342348       -1.3127485600
 C          2.1140491446        1.6668514943       -0.5945329738
 C          1.0554760825        2.3266338126        0.2241148545
 C         -0.2035066716        1.8480791857        0.3275186921
 C         -0.6198821149        0.7048058371       -0.3971207023
 N         -1.8705634893        0.1425473179       -0.2108449482
 C         -2.0291945940       -1.2433628310       -0.3360389701
 C         -1.0129694992       -2.1069075464        0.0754441053
 C         -1.1587721497       -3.4729055883       -0.0611823896
 C         -2.3222661625       -3.9989483757       -0.6009301402
 C         -3.3374162294       -3.1468570371       -1.0064875111
 C         -3.1966878120       -1.7784837257       -0.8817757632
 C         -2.9711586411        0.9419576106        0.1122235979
 C         -3.9261044700        0.4973690276        1.0280843724
 C         -5.0092439753        1.2937604638        1.3423461510
 C         -5.1569148843        2.5417591221        0.7576703349
 C         -4.2108947213        2.9880191538       -0.1517162724
 C         -3.1264267065        2.1979902709       -0.4769337705
 C          0.2716578371        0.1731814284       -1.3608188564
 C          1.5224411986        0.6551361144       -1.5116574129
 C          2.4502331539        0.2860081816        1.5005779530
 C          2.2714137559       -1.0501198243        1.5577725127
 H          4.3564814074       -2.0270566482       -0.9585849843
 H          4.7055157679        0.3916283555       -1.0888125938
 H          5.0273961930        1.8182949313        1.1598843174
 H          3.5596933736        2.6146087640        1.7170125152
 H          3.9318482859        4.1517626112        0.0218722487
 H          5.0723420561        3.1054232251       -0.8055788589
 H          3.4395101915        2.2456470800       -2.2001591278
 H          2.3935366526        3.5457547823       -1.6428101083
 H          1.3456864659        3.2054581791        0.7793038389
 H         -0.9131083509        2.3364502782        0.9806138983
 H         -0.1130041121       -1.6950923796        0.5064344046
 H         -0.3602674982       -4.1257589593        0.2578665129
 H         -2.4363611847       -5.0668845614       -0.7054637554
 H         -4.2441883029       -3.5502148018       -1.4328399374
 H         -3.9831573704       -1.1157990300       -1.2127288793
 H         -3.8055387312       -0.4705199744        1.4920919738
 H         -5.7400823929        0.9409626274        2.0548663246
 H         -6.0040465115        3.1616854109        1.0080153938
 H         -4.3234816929        3.9557812068       -0.6178623828
 H         -2.3961203079        2.5374621605       -1.1968528083
 H         -0.0921817091       -0.6011565264       -2.0215932413
 H          2.1548703928        0.2785741292       -2.3013827115
 H          2.0018684007        0.9253571415        2.2461269149
 H          1.6837968465       -1.4945716730        2.3496516130
