  130
  -171.115560198800       0.761375420851269      !
 C          5.4442456068       -2.2118288754        4.3008477396
 C          4.2457747068       -1.6617652604        3.5854595936
 C          3.3204097301       -0.9009798221        4.2812677844
 C          2.1832709777       -0.4037228409        3.6638701812
 C          1.1912100300        0.3999394893        4.4522550164
 C          1.9844035679       -0.6590131231        2.3103992641
 C          0.6974992866       -0.2080691595        1.6607073536
 C          0.7566722448        1.1947952214        1.3090530475
 C          0.8543452616        2.3558240227        1.0093921266
 C          0.9848455190        3.6928523516        0.5744304720
 C          0.2734163575        4.1470542718       -0.5350840159
 C          0.4285158951        5.4356842690       -0.9959891832
 C          1.3071091972        6.3338208550       -0.3722919046
 N          1.5082207578        7.6072521922       -0.8705448259
 C          2.2300859068        8.5696310315       -0.0731993105
 C          0.5957375940        8.1282536726       -1.8600925268
 C          2.0035083515        5.8726580737        0.7531199917
 C          1.8458761517        4.5823732721        1.2126996725
 C          2.9370067778       -1.3661498730        1.5598585398
 B          2.7707652319       -1.4700946275       -0.0097914968
 C          2.7827601726       -2.8557421191       -0.7713149725
 C          3.5271978175       -3.0134738344       -1.9565194975
 C          4.4828336879       -1.9566767271       -2.4316630584
 C          3.4289170880       -4.1824302959       -2.7097183585
 C          4.2116036617       -4.3543174417       -3.9779969606
 C          2.5834695700       -5.1952792757       -2.2870402304
 C          1.8704204471       -5.0925479561       -1.1046803963
 C          0.9737033274       -6.2195021324       -0.6815530727
 C          1.9945987956       -3.9374715218       -0.3330025348
 C          1.2243060524       -3.8780191538        0.9658228136
 C         -0.1709597570       -3.5454465868        0.7478739184
 C         -1.3247788875       -3.2650295870        0.5505330201
 C         -2.6888630375       -2.9446950090        0.3663413829
 C         -3.4368248719       -2.3876001718        1.4025993952
 C         -4.7706443157       -2.0912912651        1.2366527183
 C         -5.4215641654       -2.3313324254        0.0182675886
 N         -6.7464460198       -2.0112658335       -0.1525785133
 C         -7.4050049222       -2.2848893993       -1.4028748283
 C         -7.5544537003       -1.6625786484        0.9899048122
 C         -4.6624601666       -2.8950531233       -1.0173941660
 C         -3.3284281349       -3.1913813341       -0.8466085144
 C          2.6279610473       -0.1224940588       -0.8249554778
 C          3.5147012013        0.9473045293       -0.5921265893
 C          4.6448376611        0.8242061861        0.3918903405
 C          3.3791470163        2.1491910904       -1.2814539844
 C          4.2679651923        3.3247042430       -0.9969200422
 C          2.3950074613        2.2706489126       -2.2472238936
 C          1.5202985664        1.2353204339       -2.5186193928
 C          0.4750276540        1.4173811956       -3.5799469786
 C          1.6243843957        0.0479134186       -1.7933869433
 C          0.5734572285       -1.0107872693       -2.0445449200
 C         -0.7135267573       -0.5499201432       -1.5589579337
 C         -1.7578895403       -0.1176664561       -1.1453600737
 C         -2.9859476370        0.3720950586       -0.6488513750
 C         -3.0701543614        0.9010801402        0.6371212758
 C         -4.2685298181        1.3653233748        1.1338488447
 C         -5.4401374483        1.3256265668        0.3670469915
 N         -6.6634385177        1.7189522721        0.8917295455
 C         -7.7572262671        1.9741698354       -0.0172138713
 C         -6.6817199634        2.4633732459        2.1296183403
 C         -5.3368664773        0.8253120809       -0.9367890932
 C         -4.1399953977        0.3523916087       -1.4287537827
 C          4.0563018807       -1.8952062614        2.2227667169
 C          5.0884129729       -2.7066191692        1.4907352992
 H          5.4627101921       -3.3000134321        4.2455943358
 H          5.4309312855       -1.9214369022        5.3485068817
 H          6.3662662426       -1.8426474278        3.8524019808
 H          3.4823795365       -0.7019157130        5.3317442057
 H          0.2727075734       -0.1672751117        4.6098436954
 H          1.5987760407        0.6604128619        5.4263901460
 H          0.9365424270        1.3130295302        3.9182605492
 H          0.4994289223       -0.7851074782        0.7564675111
 H         -0.1390518688       -0.3774697150        2.3446160738
 H         -0.4023430767        3.4703254136       -1.0364418783
 H         -0.1436574614        5.7396566474       -1.8570238198
 H          3.2526356079        8.2265550619        0.0965226219
 H          1.7546990161        8.7499643404        0.8994951053
 H          2.2829400591        9.5143913842       -0.6097256450
 H         -0.4421654669        8.1483643295       -1.5038565353
 H          0.8889559083        9.1426141406       -2.1215408873
 H          0.6402517034        7.5249824029       -2.7690697850
 H          2.6822820881        6.5212837313        1.2819481652
 H          2.4000404895        4.2544824212        2.0818912247
 H          4.6018621913       -1.1658606481       -1.7041936135
 H          4.1230460931       -1.5141256561       -3.3602061693
 H          5.4585070423       -2.3978840201       -2.6338479949
 H          5.2818792721       -4.3805676954       -3.7720293539
 H          4.0266021271       -3.5280326565       -4.6627661222
 H          3.9373139682       -5.2830295810       -4.4724663713
 H          2.4871237595       -6.0895411443       -2.8870675386
 H         -0.0153220358       -5.8429494090       -0.4284894394
 H          1.3767501793       -6.7308965691        0.1938001732
 H          0.8784497205       -6.9488616151       -1.4824819419
 H          1.2778092708       -4.8511284417        1.4613206803
 H          1.6609154398       -3.1355550513        1.6313698759
 H         -2.9584960537       -2.1871836695        2.3513128738
 H         -5.3043686888       -1.6524727592        2.0627871878
 H         -6.8564430307       -1.8246653316       -2.2277716707
 H         -8.4062361465       -1.8584407176       -1.3868182556
 H         -7.4945101819       -3.3607922133       -1.6022870031
 H         -8.5925095186       -1.5568001696        0.6825418647
 H         -7.5073970919       -2.4343705393        1.7666793104
 H         -7.2252943299       -0.7120079618        1.4170728668
 H         -5.1134218492       -3.1121528334       -1.9718332716
 H         -2.7662820508       -3.6225467154       -1.6631685970
 H          5.5103247208        1.3904665597        0.0558298732
 H          4.3346584958        1.2214758560        1.3577826619
 H          4.9434359157       -0.2060836819        0.5307668374
 H          3.8867489859        4.2102186034       -1.4990192248
 H          5.2868917339        3.1457513762       -1.3443159666
 H          4.3003813912        3.5253694937        0.0708121326
 H          2.2994772498        3.2014361955       -2.7882609463
 H         -0.5173382545        1.2574753652       -3.1649799808
 H          0.5279666664        2.4215551241       -3.9941859024
 H          0.6178676382        0.7047087740       -4.3934790358
 H          0.4981062713       -1.2139224960       -3.1172514996
 H          0.8200242345       -1.9438573103       -1.5408126361
 H         -2.1783180799        0.9548109194        1.2430374569
 H         -4.2795810003        1.7647064925        2.1347682782
 H         -7.5244366249        2.7600778240       -0.7471728087
 H         -8.0156235905        1.0619791934       -0.5559078022
 H         -8.6317354750        2.2822264722        0.5527051118
 H         -7.7130498456        2.6808523066        2.4009758677
 H         -6.2469386472        1.8655066248        2.9321309760
 H         -6.1328546913        3.4117330254        2.0629895541
 H         -6.1987775736        0.7947593447       -1.5820951899
 H         -4.0919534810       -0.0386640589       -2.4356305576
 H          6.0642920946       -2.2217577107        1.5382364761
 H          5.1919264843       -3.6864674718        1.9568559799
 H          4.8162455100       -2.8476239375        0.4521294181
  130
  -171.114208203300       0.182081046442869      !
 C          5.4717617869       -2.2604695695        4.3071243096
 C          4.2678274055       -1.7126944999        3.5994143700
 C          3.3392755048       -0.9637717768        4.3037588794
 C          2.1963893168       -0.4703176873        3.6937754781
 C          1.2010983083        0.3199557779        4.4918283636
 C          1.9952460041       -0.7170111737        2.3391567932
 C          0.7005428677       -0.2774416989        1.6972502648
 C          0.7364070910        1.1245768578        1.3405962111
 C          0.8061162908        2.2836851666        1.0263197201
 C          0.8996078877        3.6168803021        0.5707812254
 C          0.1734371511        4.0295783592       -0.5445925890
 C          0.2915911133        5.3155065120       -1.0278315103
 C          1.1434713823        6.2435611668       -0.4177100965
 N          1.3381678911        7.5193414459       -0.9305302752
 C          1.4225583024        8.6538062360       -0.0401263575
 C          0.7796251245        7.8594577231       -2.2152865127
 C          1.8706811294        5.8181011902        0.7011970499
 C          1.7461097665        4.5363509832        1.1891307402
 C          2.9512712301       -1.4100687054        1.5798990102
 B          2.7850932157       -1.4967221670        0.0093318215
 C          2.8057489502       -2.8705944994       -0.7726964902
 C          3.5500084296       -3.0055518716       -1.9607251287
 C          4.5037197731       -1.9385257254       -2.4164984066
 C          3.4531045403       -4.1607319028       -2.7349296877
 C          4.2326521162       -4.3071721202       -4.0083391569
 C          2.6110610191       -5.1833433202       -2.3290290157
 C          1.8995972224       -5.1039266394       -1.1439144191
 C          1.0059084316       -6.2406111230       -0.7406161265
 C          2.0213580283       -3.9620492272       -0.3524644203
 C          1.2502511861       -3.9243369255        0.9467258740
 C         -0.1413057378       -3.5739898070        0.7318836568
 C         -1.2906813849       -3.2745632697        0.5358151554
 C         -2.6508873954       -2.9378991355        0.3519872262
 C         -3.3964958537       -2.3872044454        1.3930458781
 C         -4.7286499208       -2.0807743124        1.2289550673
 C         -5.3804120849       -2.3111357888        0.0096164775
 N         -6.7193336371       -2.0507352084       -0.1493500207
 C         -7.2970257258       -2.0363490674       -1.4696807243
 C         -7.4886543194       -1.5106159589        0.9438617814
 C         -4.6194408813       -2.8540808883       -1.0363799341
 C         -3.2877278552       -3.1595251030       -0.8677629267
 C          2.6341698103       -0.1416246909       -0.7918540755
 C          3.5171434937        0.9295808706       -0.5509687176
 C          4.6421988952        0.8048521307        0.4388323780
 C          3.3818672815        2.1333265657       -1.2369823266
 C          4.2648305904        3.3113925573       -0.9444566675
 C          2.4041530380        2.2539736272       -2.2095932161
 C          1.5323182800        1.2181556846       -2.4875742954
 C          0.4938914954        1.3997289009       -3.5557063137
 C          1.6332342407        0.0302910699       -1.7624545213
 C          0.5787472211       -1.0249512194       -2.0132810485
 C         -0.7035987432       -0.5522688172       -1.5270120098
 C         -1.7394656358       -0.1007698269       -1.1128712718
 C         -2.9537938583        0.4181114610       -0.6124871966
 C         -3.0275579060        0.9184016866        0.6857177154
 C         -4.2088192773        1.4229105587        1.1839318535
 C         -5.3728253702        1.4558386457        0.4056543314
 N         -6.5846120489        1.8935675189        0.9240438003
 C         -7.6338137343        2.2703335957        0.0029803666
 C         -6.5917119787        2.5677525135        2.2020514455
 C         -5.2802453198        0.9788019488       -0.9077791014
 C         -4.1010946054        0.4639688860       -1.4010820750
 C          4.0762388507       -1.9362240933        2.2352306393
 C          5.1119290714       -2.7341060330        1.4935710066
 H          5.4963374982       -3.3481484708        4.2445988996
 H          5.4602428144       -1.9771612590        5.3567328782
 H          6.3901053672       -1.8829866085        3.8580762241
 H          3.5033362290       -0.7715681462        5.3551766623
 H          1.6097371617        0.5741619729        5.4672042868
 H          0.9389471501        1.2365590001        3.9671827110
 H          0.2865630859       -0.2544021659        4.6469487532
 H          0.5034155215       -0.8574303155        0.7945438733
 H         -0.1296889465       -0.4562050481        2.3864226345
 H         -0.4861100368        3.3254848940       -1.0293746652
 H         -0.2981201014        5.5984218731       -1.8854015445
 H          1.6692933860        8.3372872652        0.9681864239
 H          0.4680412644        9.1961163793       -0.0024886141
 H          2.1948153909        9.3431265508       -0.3912893733
 H         -0.3059676555        8.0303409416       -2.1823486939
 H          1.2579414813        8.7757793987       -2.5633133617
 H          0.9940119981        7.0690013702       -2.9325854127
 H          2.5644265003        6.4924036428        1.1805795693
 H          2.3246657453        4.2312820586        2.0504249149
 H          4.6286400534       -1.1658638142       -1.6707080134
 H          4.1383820062       -1.4727494234       -3.3314359352
 H          5.4774966031       -2.3757010029       -2.6356781678
 H          5.3033437185       -4.3407760398       -3.8055647414
 H          4.0482068351       -3.4658042898       -4.6746131110
 H          3.9547878087       -5.2243108733       -4.5220641624
 H          2.5161440527       -6.0666946995       -2.9451911979
 H          0.0150428312       -5.8718378811       -0.4830163888
 H          1.4093512046       -6.7654488162        0.1265408040
 H          0.9140988036       -6.9567532467       -1.5537841223
 H          1.2938053242       -4.9080229821        1.4215701962
 H          1.6926414034       -3.1998006021        1.6283822541
 H         -2.9172979924       -2.1974954010        2.3435376367
 H         -5.2587313213       -1.6425622163        2.0578500737
 H         -6.6976389287       -1.4342408942       -2.1594376014
 H         -8.2977482838       -1.6119901751       -1.4261050322
 H         -7.3781516305       -3.0504005380       -1.8760424766
 H         -8.5394214047       -1.4782426587        0.6627359663
 H         -7.3991674804       -2.1563097773        1.8208541095
 H         -7.1654833743       -0.4999635827        1.2148581147
 H         -5.0717443677       -3.0505907343       -1.9946438272
 H         -2.7245076810       -3.5773181336       -1.6904131314
 H          4.3196406140        1.1789285717        1.4099170164
 H          4.9543915093       -0.2236853248        0.5606880155
 H          5.5019483109        1.3891253751        0.1198819235
 H          3.8806735750        4.1980832688       -1.4422289345
 H          5.2849444975        3.1389762944       -1.2915920563
 H          4.2955383831        3.5071005127        0.1242576507
 H          2.3111381561        3.1852646783       -2.7503396704
 H         -0.5013578749        1.2410126837       -3.1473352876
 H          0.5501757928        2.4033571230       -3.9708486165
 H          0.6417469634        0.6859459527       -4.3673722034
 H          0.5016857415       -1.2297488207       -3.0854530733
 H          0.8199320880       -1.9582683385       -1.5075762577
 H         -2.1392725101        0.9208975179        1.2987258429
 H         -4.2110340677        1.8017360805        2.1928222568
 H         -7.3150887105        3.0499054564       -0.7009175454
 H         -7.9663504023        1.4002722218       -0.5661628509
 H         -8.4879641384        2.6433036529        0.5650213699
 H         -7.6192539216        2.7992021823        2.4776787140
 H         -6.1828414646        1.9107669888        2.9709957324
 H         -6.0146725521        3.5019804908        2.1939531359
 H         -6.1377501407        1.0044064038       -1.5598579621
 H         -4.0616333136        0.0927288192       -2.4160129651
 H          6.0841849191       -2.2419949061        1.5410222434
 H          5.2248552690       -3.7164405634        1.9521627381
 H          4.8369351587       -2.8696208265        0.4549405641
  130
  -171.113103075000       5.654353270586231E-002 !
 C          5.5100423962       -2.3584667738        4.3148313664
 C          4.3105123636       -1.7945371566        3.6123223707
 C          3.3929712114       -1.0364559763        4.3213290748
 C          2.2503803606       -0.5341747119        3.7176701038
 C          1.2630613479        0.2609495423        4.5206092634
 C          2.0412428123       -0.7780933714        2.3640554385
 C          0.7391450378       -0.3475793791        1.7312412900
 C          0.7471002682        1.0508229649        1.3600350635
 C          0.7703746957        2.2060806103        1.0259541897
 C          0.7995078274        3.5305676739        0.5379394034
 C         -0.0326541142        3.9034111828       -0.5158582209
 C          0.0119405344        5.1811156483       -1.0320018751
 C          0.8927284994        6.1401802501       -0.5186029080
 N          1.0106757109        7.4094175478       -1.0715156859
 C          1.1369595786        8.5630646188       -0.2103684833
 C          0.3246379437        7.7097419300       -2.3033792414
 C          1.7270654587        5.7540844090        0.5381036740
 C          1.6757747808        4.4808915852        1.0602571986
 C          2.9912701275       -1.4720997014        1.5981909018
 B          2.8252604907       -1.5336712609        0.0265507729
 C          2.8302702719       -2.8920034690       -0.7816134556
 C          3.5677178611       -3.0110005732       -1.9758283258
 C          4.5278272684       -1.9437746919       -2.4168728878
 C          3.4581222452       -4.1512245330       -2.7703099045
 C          4.2309661314       -4.2809774518       -4.0495624888
 C          2.6100846012       -5.1745901469       -2.3789334009
 C          1.9051276101       -5.1115397441       -1.1890581498
 C          1.0060868209       -6.2490789291       -0.8008013561
 C          2.0394660991       -3.9850825927       -0.3776582335
 C          1.2765490750       -3.9675139797        0.9267569945
 C         -0.1154199015       -3.6103172214        0.7274125768
 C         -1.2656985956       -3.3060326756        0.5440993437
 C         -2.6203621292       -2.9400665639        0.3764524200
 C         -3.4011349104       -2.5812161194        1.4739374859
 C         -4.7215997073       -2.2224303149        1.3203220621
 C         -5.3278301510       -2.2077342746        0.0565802436
 N         -6.6598733467       -1.8995563718       -0.0966716631
 C         -7.1796323320       -1.6545476571       -1.4196197304
 C         -7.4096890764       -1.3922640004        1.0274321943
 C         -4.5328757932       -2.5660473997       -1.0419127754
 C         -3.2129726364       -2.9246162617       -0.8845945210
 C          2.6905532645       -0.1578008130       -0.7419489796
 C          3.5915239633        0.8928545912       -0.4788912885
 C          4.7292466393        0.7203633845        0.4891645526
 C          3.4655364648        2.1190974639       -1.1256873829
 C          4.3701614739        3.2740331153       -0.8076711847
 C          2.4814034270        2.2826262543       -2.0853250936
 C          1.5976133380        1.2649351558       -2.3914841559
 C          0.5616229361        1.4889992582       -3.4536019210
 C          1.6871700784        0.0554757910       -1.7014481949
 C          0.6217553592       -0.9821048958       -1.9802002773
 C         -0.6590148045       -0.5058729104       -1.4941560073
 C         -1.6933812634       -0.0535853516       -1.0770123028
 C         -2.9133781855        0.4705642072       -0.5956826806
 C         -3.1141151202        0.6634590023        0.7707665348
 C         -4.3006936536        1.1765512986        1.2412449642
 C         -5.3331293730        1.5441224769        0.3694234112
 N         -6.5479296440        2.0003415868        0.8775793673
 C         -7.6612585526        2.1764612483       -0.0234056165
 C         -6.5504556324        2.9754663609        1.9458383213
 C         -5.1219732750        1.3533247769       -0.9990965981
 C         -3.9392305976        0.8205821882       -1.4698905585
 C          4.1128464545       -2.0118082285        2.2479099932
 C          5.1359519833       -2.8198008559        1.4997695289
 H          5.5231250440       -3.4459462702        4.2461373156
 H          5.5032111278       -2.0809956405        5.3660100483
 H          6.4314570464       -1.9880091719        3.8662531494
 H          3.5635136658       -0.8464563740        5.3720961316
 H          1.6832280482        0.5260714553        5.4880781137
 H          0.9906629313        1.1713723708        3.9905614929
 H          0.3526509692       -0.3149524184        4.6935103033
 H          0.5388672253       -0.9371906239        0.8351640778
 H         -0.0819852996       -0.5295772668        2.4306766442
 H         -0.7166193741        3.1754181549       -0.9258035596
 H         -0.6582194052        5.4331300282       -1.8386000073
 H          0.1686629123        9.0651808785       -0.0794144698
 H          1.8367174098        9.2771345466       -0.6517144040
 H          1.5028300717        8.2763579850        0.7702064913
 H         -0.7572623689        7.8536733135       -2.1708886724
 H          0.7427184308        8.6308925483       -2.7108607368
 H          0.4917903504        6.9111793235       -3.0240787157
 H          2.4447816975        6.4529811768        0.9409652603
 H          2.3329283175        4.2066860205        1.8737960082
 H          4.6616150718       -1.1851201317       -1.6585489969
 H          4.1630361729       -1.4595628343       -3.3224288974
 H          5.4973396397       -2.3845952426       -2.6472169414
 H          5.3023049215       -4.3244113553       -3.8522343366
 H          4.0487631054       -3.4274617035       -4.7008581603
 H          3.9451978550       -5.1876406783       -4.5772826388
 H          2.5054222248       -6.0458478644       -3.0105462767
 H          0.0189366598       -5.8785591778       -0.5314942108
 H          1.4107966915       -6.7913338528        0.0549853319
 H          0.9051588359       -6.9504608541       -1.6256209882
 H          1.3213284833       -4.9588106868        1.3853593018
 H          1.7250322423       -3.2551007297        1.6174302331
 H         -2.9587715781       -2.5829924589        2.4608280290
 H         -5.2793187259       -1.9421322526        2.1979426988
 H         -6.6073797150       -0.8810786347       -1.9444082233
 H         -8.2169216168       -1.3339899498       -1.3490013488
 H         -7.1544177277       -2.5707627893       -2.0161425223
 H         -7.4128359925       -2.1255219421        1.8366997582
 H         -7.0011921560       -0.4484761245        1.4030477284
 H         -8.4423170241       -1.2295558827        0.7264774312
 H         -4.9440588624       -2.5659722957       -2.0376152867
 H         -2.6228833372       -3.1913470392       -1.7497120195
 H          4.4323020984        1.0766512719        1.4750779261
 H          5.0213251065       -0.3171740275        0.5797866151
 H          5.5960203641        1.2939367536        0.1692468144
 H          3.9867872719        4.1837838758       -1.2625473028
 H          5.3794732029        3.1017046355       -1.1852253176
 H          4.4303023499        3.4275000500        0.2667438991
 H          2.3940836086        3.2321422980       -2.5943946618
 H         -0.4355160829        1.3314250407       -3.0502484600
 H          0.6305537681        2.5032810110       -3.8396409819
 H          0.7015954152        0.7963905697       -4.2849042021
 H          0.5496919338       -1.1615053404       -3.0574590911
 H          0.8507440191       -1.9288434358       -1.4939728690
 H         -2.3276986604        0.3975062479        1.4593620924
 H         -4.4342111188        1.2766486666        2.3080639495
 H         -7.5622036812        3.0657893424       -0.6621059964
 H         -7.7707193451        1.2954255588       -0.6522477305
 H         -8.5675823187        2.2866325757        0.5737209055
 H         -6.6377032962        3.9970041141        1.5510415548
 H         -7.4006269237        2.7893661100        2.6065851275
 H         -5.6367884077        2.9165151536        2.5280726686
 H         -5.8778474940        1.6391769708       -1.7139822417
 H         -3.8006390322        0.6830551050       -2.5337870872
 H          5.2395826315       -3.8043996729        1.9557513543
 H          4.8539461502       -2.9498420302        0.4620751555
 H          6.1143043204       -2.3395706909        1.5433962095
