  116
       -170.07365614
 C        -11.2734065728       -5.1502002463       -1.1400219181
 C        -11.4609235659       -4.1881607415        0.0416656170
 C        -12.8436773873       -3.5430403742       -0.0861702528
 C        -11.4228160995       -4.9718887091        1.3612307617
 C        -10.3355791888       -3.1637044145        0.0350250765
 C         -9.0130146511       -3.6117132376        0.1549908543
 C         -7.9293596872       -2.7575917288        0.1618962866
 C         -8.1721126291       -1.3970936234        0.0522729516
 C         -9.4920108452       -0.9215436423       -0.0944557098
 C        -10.5640525239       -1.8043507045       -0.0977522056
 C         -9.3973488709        0.5051810502       -0.2335967005
 C        -10.3473165070        1.5069947421       -0.3830614061
 C         -9.9444737171        2.8291868351       -0.4675772972
 C        -10.9289738823        3.9776388859       -0.6337830029
 C        -10.6073485221        4.7336773617       -1.9306068474
 C        -10.8040829075        4.9267667339        0.5664006700
 C        -12.3816642809        3.4999603631       -0.7115800244
 C         -8.5756843928        3.1187478516       -0.3851112848
 C         -7.6103437998        2.1440020562       -0.2370689712
 C         -8.0240186260        0.8223282339       -0.1757698655
 N         -7.2911697013       -0.3348888852       -0.0006047417
 C         -5.8998710634       -0.4172875423        0.1155299777
 C         -5.3239683667       -1.1330606746        1.1621984914
 C         -3.9510968399       -1.2225676931        1.2674949862
 C         -3.1200050891       -0.5881430686        0.3466760241
 C         -1.6595235076       -0.7255322722        0.4528785820
 C         -1.1238476046       -2.0075075980        0.5468619789
 C          0.2371858374       -2.2156224761        0.5964566781
 C          1.1226580817       -1.1378829352        0.5469441826
 C          2.5335457466       -1.3185039941        0.5918118021
 C          3.3813642765       -0.2661546586        0.5291415679
 C          2.8966417151        1.0705432261        0.4133741802
 C          3.7577541364        2.1803525000        0.3316913670
 C          5.2167824593        2.0108489223        0.2530946862
 C          6.0552164888        2.6663737016        1.1523014886
 C          7.4212174498        2.4782522397        1.1060929740
 C          7.9815632733        1.6291598958        0.1537928725
 C          9.4159052046        1.4018389687        0.1658640444
 N         10.3293453943        2.3040731732        0.4163115014
 N         11.5290421967        1.7275593663        0.3227673200
 C         11.3633377699        0.4644646398        0.0196336303
 C         12.4431076543       -0.4963020597       -0.1258593030
 C         12.3058200953       -1.8279182923        0.2605288652
 C         13.3660670051       -2.7029938104        0.1125949245
 C         14.5694690018       -2.2620196045       -0.4120952931
 C         14.7179356937       -0.9329875689       -0.7762904141
 C         13.6636500612       -0.0522628718       -0.6326857407
 N         10.0206511494        0.1948023575       -0.0966292804
 C          9.3913511597       -1.0211488723       -0.4127637161
 C          8.4103253351       -1.5283728934        0.4325979340
 C          7.7769702313       -2.7138199291        0.1081744276
 C          8.1226161152       -3.3959462131       -1.0470646441
 C          9.1050913131       -2.8909189685       -1.8830815332
 C          9.7401651503       -1.7021485845       -1.5737004689
 C          7.1534041169        1.0216929517       -0.7884359219
 C          5.7881474843        1.2109891961       -0.7351273889
 C          3.2254917853        3.4660520408        0.3175464489
 C          1.8635164516        3.6774000181        0.3461123092
 C          0.9767607060        2.6000550287        0.3883585190
 C         -0.4345010693        2.7835453928        0.4217415006
 C         -1.2824011405        1.7294027001        0.4496962839
 C         -0.7989983334        0.3873813360        0.4439380051
 C          0.6042734692        0.1780067756        0.4717673375
 C          1.4937630425        1.2818019507        0.4245511848
 C         -3.7040990022        0.1261118609       -0.6981234278
 C         -5.0765727035        0.2090305085       -0.8171097156
 H        -10.3342192321       -5.6910515855       -1.0659096161
 H        -11.2747858401       -4.5974710886       -2.0772327045
 H        -12.0834910752       -5.8761201048       -1.1653842733
 H        -13.6081408683       -4.3172312049       -0.0674842601
 H        -13.0345968451       -2.8619951006        0.7398754259
 H        -12.9373138775       -3.0020025182       -1.0247932343
 H        -11.5312421359       -4.2923930847        2.2041244119
 H        -12.2362195314       -5.6939222999        1.3924825665
 H        -10.4863274350       -5.5101838382        1.4764077126
 H         -8.8191274969       -4.6699501027        0.2419770555
 H         -6.9243341084       -3.1452284618        0.2377822248
 H        -11.5583889155       -1.4063782647       -0.2107965576
 H        -11.3869077335        1.2287662579       -0.4240655378
 H        -11.3126855574        5.5495954003       -2.0740980936
 H         -9.6046982572        5.1511230132       -1.9083146719
 H        -10.6777729721        4.0617492887       -2.7835358378
 H        -11.5193285296        5.7416683692        0.4763014051
 H        -11.0057845878        4.3901373260        1.4911871659
 H         -9.8077593613        5.3545949430        0.6320934412
 H        -12.5296232045        2.8358849303       -1.5599294902
 H        -12.6730730189        2.9850561785        0.2008448481
 H        -13.0391594239        4.3578193094       -0.8374992942
 H         -8.2487855744        4.1462466535       -0.4337038575
 H         -6.5669330371        2.4110323071       -0.1593607017
 H         -5.9600024925       -1.6043581820        1.8966591073
 H         -3.5113211193       -1.7701207788        2.0885493446
 H         -1.7971548874       -2.8529920064        0.5573889242
 H          0.6305445436       -3.2198661265        0.6630431170
 H          2.9139774101       -2.3260914202        0.6847836228
 H          4.4481180072       -0.4246907913        0.5841718390
 H          5.6243993691        3.3055420895        1.9090714105
 H          8.0738169829        2.9715250392        1.8093745349
 H         11.3805263518       -2.1780636940        0.6936771160
 H         13.2514165996       -3.7338715290        0.4135192274
 H         15.3925807002       -2.9510470692       -0.5286536119
 H         15.6590208879       -0.5829825171       -1.1736728321
 H         13.7619946865        0.9868572611       -0.9050758895
 H          8.1520861702       -0.9906891323        1.3330467261
 H          7.0139154237       -3.1063318683        0.7632745869
 H          7.6263782959       -4.3214885825       -1.2958922991
 H          9.3763719578       -3.4204586756       -2.7837214136
 H         10.5043956329       -1.2971477067       -2.2207063113
 H          7.5759282878        0.4095439681       -1.5715028174
 H          5.1525381478        0.7437897299       -1.4734396252
 H          3.9003170532        4.3082978310        0.2599738120
 H          1.4708639594        4.6838693024        0.3272479298
 H         -0.8152339928        3.7951392208        0.4321944371
 H         -2.3488387462        1.8915439429        0.4980329718
 H         -3.0728829487        0.5929693394       -1.4405105214
 H         -5.5206922260        0.7425099433       -1.6443032379
