79
 energy: -121.036859507024 gnorm: 0.000062298892 xtb: 6.7.1 (edcfbbe)
C            7.53884981147444       -1.54448669339821       -3.64725655267967
C            6.72734693248393       -2.27396408748128       -2.79327452630658
C            6.20707823563138       -1.69171296485529       -1.65344806022096
C            6.48637889257980       -0.35789938378745       -1.35433475106020
N            5.96217492147072        0.23530561566397       -0.19953925223332
C            6.72754016833928        1.15896923340474        0.52361334646752
C            8.10254499376525        0.97732829449500        0.67301707361546
C            8.85375108464013        1.89689624717077        1.37958874693665
C            8.24977378490823        3.00303409227264        1.95567317478194
C            6.88312821909085        3.18469954279158        1.81604589401860
C            6.12485474544593        2.27550239367082        1.10366069186477
C            4.67148709336417       -0.08913064100903        0.23072034189062
C            3.64456200007739       -0.29593640670230       -0.69130357248357
C            2.37272066072831       -0.61249823400786       -0.26208528563626
C            2.08292315245214       -0.73971154587029        1.09544468580442
C            0.72709580389332       -1.08343153659919        1.54816646467591
C            0.53039931321177       -2.00892463639622        2.57271838444954
C           -0.74722441913752       -2.32202245779902        2.99844938690670
C           -1.85050587006240       -1.72850183993797        2.41197297180652
C           -1.67440658793653       -0.81232948560176        1.37696300985263
C           -2.79047336038698       -0.12917492705460        0.73722584041302
N           -2.75215799185010        1.13560090517773        0.39630041688861
C           -3.96932974936857        1.41336481215728       -0.14391048407239
C           -4.44667151454795        2.66676910090574       -0.61984192627333
C           -3.64974020419004        3.81588325081619       -0.56596859152134
C           -4.14326777500051        5.02395421804636       -0.99183727522829
C           -5.44820253921891        5.09725945935457       -1.47618051482588
C           -6.23808366043671        3.97296594949603       -1.54065488976179
C           -5.76678013882894        2.71783409312794       -1.12421937905763
C           -6.56464275524852        1.50627874404857       -1.21074520967351
C           -7.84439370365074        1.50823159604282       -1.78487718898499
C           -8.59128781167212        0.36031536302616       -1.90841901629163
C           -8.07680795210276       -0.85738451501698       -1.47373836789980
C           -6.83004188425004       -0.90187651372771       -0.89971753736743
C           -6.06370207397795        0.26162894461967       -0.73780752189165
C           -4.76746341941013        0.27112772199100       -0.14860868580081
N           -3.99921636039778       -0.71320702713521        0.43405605554880
C           -4.33112602094546       -2.06112181338349        0.69253560530329
C           -3.62105888063787       -3.07640724682947        0.06332137905227
C           -3.92267527233487       -4.39782503002915        0.34263950553026
C           -4.92695458485893       -4.70821004782658        1.24449843064512
C           -5.63348825341044       -3.69424349045636        1.87218199456449
C           -5.33780270431065       -2.37030572964496        1.60275647274681
C           -0.38493411201450       -0.49194260016458        0.96050084574087
C            3.11256131478442       -0.53428905448967        2.01219594248116
C            4.38561835860636       -0.21129034877513        1.59120009396400
C            7.29824618628820        0.37380181901097       -2.22140842306482
C            7.82181052299514       -0.22015454957956       -3.35367434519733
H            7.94748483607158       -2.00395502390499       -4.53478663054490
H            6.50458207366530       -3.30864579326029       -3.01067146491131
H            5.58317414952059       -2.26684680393827       -0.98480902014461
H            8.57489139978214        0.11125615280701        0.23235279817440
H            9.91772870373677        1.74339646003425        1.48832672934799
H            8.83980069928782        3.71807810777040        2.50919677590396
H            6.40381050553124        4.04658706014520        2.25743526538112
H            5.06116611342813        2.42531924943743        0.98750916597631
H            3.85225807777073       -0.20263230796196       -1.74743087633274
H            1.59201370133045       -0.77442264716018       -0.99086932164137
H            1.38328380232741       -2.49093550395395        3.02718344822222
H           -0.88838158563203       -3.03345708020945        3.79908035325630
H           -2.84008717755444       -1.96175149627169        2.77373481789227
H           -2.64878280933131        3.71783981308974       -0.17378443426280
H           -3.53116746967608        5.91300763506269       -0.94879877401010
H           -5.84474891207781        6.04755204761272       -1.80397808112462
H           -7.24220099315211        4.07911117693512       -1.91942672984458
H           -8.26414460203784        2.42992509108134       -2.15402716604023
H           -9.57348636749300        0.40265659403157       -2.35608584585483
H           -8.65158383579470       -1.76435562174740       -1.59051912274173
H           -6.42666239171164       -1.84949382591882       -0.58052911678261
H           -2.83858835853308       -2.82330442585292       -0.63689405542546
H           -3.37105098462711       -5.18530120535252       -0.14815287439235
H           -5.15972403842687       -5.74010860274156        1.45947457696123
H           -6.41529090614096       -3.93275658989830        2.57756707864269
H           -5.88087122939248       -1.57157915470102        2.08760564675740
H           -0.26422900202679        0.24495523791198        0.18088776906247
H            2.90862040677715       -0.61464618452050        3.06988156114149
H            5.17171265322374       -0.05252158228479        2.31510489496498
H            7.51334249531933        1.40936717510699       -2.00091050023159
H            8.44872244978308        0.35889345890989       -4.01625826577242
