79
 energy: -120.945657494107 gnorm: 0.000061716573 xtb: 6.7.1 (edcfbbe)
C            5.97581444493988        4.34156566087103       -0.74872872550028
C            4.93920054232000        3.61955133875551       -1.31958879037310
C            4.87363546192088        2.24833624885932       -1.16641157330726
C            5.85015877532610        1.57715598782806       -0.42783606334556
N            5.78936096811227        0.18807534337774       -0.26835457349544
C            6.96928301308602       -0.56521384188147       -0.26786252080591
C            8.02208061319224       -0.23005324313026       -1.12089011152532
C            9.18625461950808       -0.97351835597903       -1.11193560682456
C            9.31806887520217       -2.06101445224621       -0.26239442538027
C            8.27399717546469       -2.39979257110271        0.58429551350922
C            7.10759745717749       -1.65971586238660        0.58742320144548
C            4.55509676096065       -0.44364416518012       -0.11914529473232
C            3.51735469398902        0.17933766206796        0.58101402027122
C            2.29231145862536       -0.43526658903602        0.70680567539518
C            2.05342197043955       -1.69568815371510        0.15109760312563
C            0.73844538438035       -2.32930958837381        0.27342892954192
C            0.62443384854647       -3.72314658803768        0.44253567343336
C           -0.63684621609433       -4.31039846448575        0.50999179428482
C           -1.77325529363051       -3.54916321001703        0.43844198531052
C           -1.69278136641522       -2.12771113561880        0.31142991399365
C           -2.89857895657659       -1.40871629233943        0.24046603115142
N           -4.07771695909646       -2.01224356731733       -0.01186376225877
C           -4.98285233085985       -1.05588935388183       -0.13575020429605
C           -6.36341924446468       -1.20623037539028       -0.46260293635468
C           -6.89553905490419       -2.46451144645691       -0.74792843769291
C           -8.22483526867411       -2.60139739865638       -1.09692503618417
C           -9.02294884281504       -1.46883339282366       -1.16846877151170
C           -8.50657991364230       -0.21792928522990       -0.88254223588742
C           -7.16637413759696       -0.04140329465821       -0.51277823403137
C           -6.60139910962218        1.25319065513032       -0.17452609039287
C           -7.38834770789760        2.40302643284146       -0.12515055740442
C           -6.87927167128829        3.63783383556951        0.22597083689977
C           -5.52873311254968        3.76241795631033        0.56829864269446
C           -4.71309761428032        2.66708511877078        0.53027145583355
C           -5.20013849347231        1.38975620565533        0.14645604908121
C           -4.40942459737995        0.23914123722341        0.09439304594760
N           -3.07159789782048       -0.00314543103303        0.32788024011343
C           -2.07820277949026        0.90823620897493        0.71234554759431
C           -1.46740879884768        0.78321303724156        1.96124548594114
C           -0.47088207064274        1.66553111780654        2.33179058578074
C           -0.07048437780431        2.67447332105643        1.46776075428982
C           -0.67491088791381        2.79912625662253        0.22509659628166
C           -1.67413900494997        1.92464092177696       -0.15607615368190
C           -0.40368425921383       -1.55623111190263        0.21181887579788
C            3.10157266969543       -2.32078175952183       -0.52966857533424
C            4.32751815521483       -1.70853983920194       -0.66925357757676
C            6.89005634831607        2.30928343967093        0.14795851693629
C            6.94968975408217        3.67944356421532       -0.01734034571905
H            6.02487196517022        5.41266554783120       -0.87387627367954
H            4.18009942750778        4.12643409947156       -1.89697573585858
H            4.07314524719806        1.68626581117866       -1.62453680719447
H            7.91528136234261        0.60853250555175       -1.79311555306389
H            9.99294726091019       -0.70711552220848       -1.77887292978940
H           10.22880848299208       -2.64048475595285       -0.25973441681196
H            8.37178386732939       -3.24161434789053        1.25379321130755
H            6.29948157967727       -1.91610676071219        1.25665759205296
H            3.68761780666786        1.14422025686423        1.03523931047828
H            1.50941855958296        0.05451530002550        1.26610186424082
H            1.51115021039662       -4.33081572983446        0.53200399835236
H           -0.71624622141848       -5.38258254626442        0.62330221662093
H           -2.75457101749341       -3.99260470519999        0.48843095202934
H           -6.23584464733700       -3.31695026084666       -0.69188031369950
H           -8.63570690609625       -3.57527016054878       -1.31715458133364
H          -10.06233232911816       -1.56014274578114       -1.45019775575094
H           -9.16814213314262        0.63032974417105       -0.95640908846622
H           -8.43973008139388        2.34154020710671       -0.35758150290817
H           -7.52597548129776        4.50206016282715        0.24956890290474
H           -5.13375961934658        4.72224794209890        0.86827911278579
H           -3.67901557104662        2.76552356929046        0.81619989970499
H           -1.78194880332903       -0.00857721340504        2.62555579293390
H           -0.00646281938551        1.56725820393085        3.30228339546528
H            0.71128191237536        3.35896114623034        1.75993716121292
H           -0.36231392347765        3.57943649735976       -0.45294779394328
H           -2.14678795470499        2.01106497648394       -1.12413447757656
H           -0.30510599312066       -0.50216714941051        0.01167857719677
H            2.93793041826462       -3.28425717126542       -0.98854716050124
H            5.11568039940126       -2.19653345196311       -1.22365357371191
H            7.64211958585246        1.79718545325540        0.72986853836409
H            7.75731600467971        4.23520655407202        0.43573865416944
