79
 energy: -121.038353804001 gnorm: 0.000034777583 xtb: 6.7.1 (edcfbbe)
C            5.94431960295431        4.28590022903744       -1.19009633892633
C            4.92697889392655        3.51047182640335       -1.72294495911662
C            4.86202600097586        2.15711165632925       -1.45202037286610
C            5.81687775293200        1.55820437415498       -0.62997556483938
N            5.75600245618073        0.18709549322016       -0.34783460015391
C            6.94074636572912       -0.55710940102820       -0.26455178011511
C            7.99452229866190       -0.30726749168793       -1.14343812985419
C            9.16310323444077       -1.03931567909081       -1.05524778405029
C            9.29797179074044       -2.03391222448432       -0.09988918630172
C            8.25286172162069       -2.28806737772917        0.77385016600578
C            7.08379637558290       -1.55532834926892        0.69909765126290
C            4.52159363584538       -0.43503910844259       -0.15001876968001
C            3.47377354642299        0.24442008286944        0.47421363768373
C            2.25133515069676       -0.36674413850714        0.65323976146245
C            2.03464475427842       -1.67943421217269        0.23539536909026
C            0.72617553295165       -2.31748027588940        0.43238932235357
C            0.62316780038496       -3.64666775872065        0.83780283341088
C           -0.61951315951503       -4.23018015330279        1.01323098762186
C           -1.77245676156428       -3.49808072880248        0.80422278953106
C           -1.69033181003654       -2.16032602011745        0.41400667545087
C           -2.92913307407792       -1.42881865330978        0.19557773660456
N           -4.01979941433649       -1.99383081683260       -0.26341020616554
C           -4.95044794077127       -1.00572904337990       -0.33904557864407
C           -6.29033147800193       -1.10279818402694       -0.80898798378540
C           -6.81005837241264       -2.31452841433252       -1.27807069462638
C           -8.09646733006951       -2.38192614212267       -1.75229650847600
C           -8.88095046486059       -1.22996041847845       -1.76684551522992
C           -8.38245568073346       -0.03455497866665       -1.30357734546227
C           -7.07590800835584        0.07297235135691       -0.80119402280273
C           -6.53237463416153        1.31369024153605       -0.27443874896798
C           -7.30899956878652        2.47862760243703       -0.18870175827625
C           -6.81668022251732        3.64761426078131        0.34216130785485
C           -5.51437067624648        3.69879237089613        0.82951936334022
C           -4.71855720964190        2.58184938736254        0.75905835747913
C           -5.19311296780887        1.38617358738502        0.19998423050041
C           -4.41055427247587        0.20055626239447        0.10341853845208
N           -3.10429854981925       -0.08406661848179        0.43508688599372
C           -2.11710424753370        0.78894978531485        0.94469544036440
C           -1.65935456268474        0.62469494895751        2.24636115570132
C           -0.66962471391148        1.46047037257503        2.73422717195725
C           -0.13578676132077        2.45367926884193        1.92929647676296
C           -0.59230473278116        2.61468237059804        0.63024083133741
C           -1.58077446751051        1.78490652047659        0.13304832712003
C           -0.43866695486181       -1.58764462265321        0.21524938555174
C            3.08830957317827       -2.35967036666134       -0.37300072138920
C            4.30814667047980       -1.74833394442351       -0.57314637209253
C            6.83695869585316        2.34413738804542       -0.09362238121237
C            6.89843922916639        3.69504065683998       -0.37733118425566
H            5.99355094385135        5.34248952371539       -1.40693083240546
H            4.18261007142028        3.96080972953509       -2.36367885828318
H            4.07336355881164        1.55346012982674       -1.87735344092769
H            7.88830729635880        0.46177191551657       -1.89489072601889
H            9.97097290588762       -0.83709409284080       -1.74357508013302
H           10.21110471390461       -2.60661242132899       -0.03671204154788
H            8.35160398939054       -3.05750409921888        1.52591961489581
H            6.27358848358431       -1.74854800918152        1.38727619466106
H            3.62847775767763        1.25543479529665        0.82151791360841
H            1.45740401651443        0.17065322008537        1.15074270930590
H            1.51961279890015       -4.21851110096572        1.02656305857821
H           -0.68942385712761       -5.26311510446454        1.32184390521239
H           -2.74719017568821       -3.94110636783689        0.93768342758844
H           -6.16661382415285       -3.18107069096889       -1.25818351548980
H           -8.49925603012310       -3.31583620164837       -2.11608284210740
H           -9.89161829727553       -1.27554016954214       -2.14667926302553
H           -9.02531377264301        0.83063649060057       -1.33778472000714
H           -8.32860595104378        2.46943836216709       -0.53847446412886
H           -7.44625155873438        4.52406682170923        0.39079232119183
H           -5.13097903123572        4.61002404045864        1.26458125970151
H           -3.71521854418388        2.62103435829082        1.15147661197909
H           -2.07918840638079       -0.15614946482992        2.86341107180904
H           -0.31432749591930        1.33182824554674        3.74555822681188
H            0.63904953947705        3.10050914391063        2.31210415851628
H           -0.17453442039716        3.38471814598862       -0.00058268606828
H           -1.94407375476158        1.89912487293504       -0.87827014521249
H           -0.35637798049918       -0.57532399648313       -0.14849361782590
H            2.93841216226785       -3.36984865746528       -0.72496800506009
H            5.10597621579911       -2.28352854161968       -1.06710788256742
H            7.57734689388661        1.88792978133453        0.54741600135242
H            7.69311010469854        4.29189240651305        0.04649056926262
