79
 energy: -120.945695688694 gnorm: 0.000063191602 xtb: 6.7.1 (edcfbbe)
C            6.07944363752920        4.30744435139355       -0.64586221702464
C            5.02611110047530        3.61904884726191       -1.22753443429948
C            4.93154037004004        2.24674170921217       -1.10128253798592
C            5.89504268400106        1.54054997345417       -0.37840203009066
N            5.80472386405161        0.15079693168568       -0.24263545278043
C            6.96993928450944       -0.62620376086023       -0.25523237144426
C            8.02245619310250       -0.30778474307249       -1.11465725657929
C            9.16842678171569       -1.07916816125888       -1.12349451608642
C            9.28235413146125       -2.17678555570774       -0.28448352569351
C            8.23960600517574       -2.49680874577416        0.57107756298260
C            7.09141317730217       -1.72910642256546        0.59159811780759
C            4.56013348078495       -0.46165750199016       -0.10239091363112
C            3.52779538375947        0.17163439400001        0.59661801551731
C            2.29553031311888       -0.42963060683533        0.71824682819644
C            2.04505860505399       -1.68745329813029        0.16243186411247
C            0.72647972138742       -2.31252278145148        0.29092709068363
C            0.60790180437196       -3.70306270551462        0.48016794296406
C           -0.65559676508150       -4.28413172735241        0.55979894775884
C           -1.78863975402687       -3.51894111250800        0.48028291812441
C           -1.70340289200411       -2.09973583339230        0.33063266713290
C           -2.90833556406990       -1.38050279481917        0.25096839515110
N           -4.08851244456938       -1.99069613872614        0.01870132321172
C           -4.99553614473208       -1.03882617691248       -0.12180488347914
C           -6.37680402929626       -1.19791183252491       -0.44153452450174
C           -6.90742413483779       -2.46219604501629       -0.70182263277952
C           -8.23650637715974       -2.60736333308125       -1.04823788629624
C           -9.03561582076044       -1.47717002788341       -1.14320027154600
C           -8.52080352115697       -0.22032893034044       -0.88152138740607
C           -7.18131968331744       -0.03536527332789       -0.51339968421304
C           -6.61824350421731        1.26583388684264       -0.19793706680237
C           -7.40904736599457        2.41334686786201       -0.15832988277874
C           -6.90156908439141        3.65469900753239        0.17141917036589
C           -5.54853885580124        3.78905106557848        0.49993757214535
C           -4.72928944695847        2.69610026135238        0.47134809678880
C           -5.21534662943592        1.41147877517402        0.11154481440624
C           -4.42254658565856        0.26163768285887        0.07601785140891
N           -3.08332173514101        0.02639568448066        0.30847203571840
C           -2.08587014081390        0.95317394444339        0.64098636351234
C           -1.44700163338202        0.87318307519820        1.87966088759790
C           -0.44544089897839        1.77053867535725        2.19675780376491
C           -0.06804620633028        2.75032480223160        1.28981082269781
C           -0.70186776026795        2.83134151061606        0.05823569118575
C           -1.70642869920523        1.94167825638502       -0.26973809107218
C           -0.41195852002365       -1.53501140227292        0.21982742276532
C            3.08608108260873       -2.32150192744490       -0.52051194650739
C            4.31793989050630       -1.72128757476878       -0.65885262509515
C            6.95297101958440        2.23871734372906        0.20679410269670
C            7.04174020601044        3.61023938252036        0.06804457514505
H            6.15060699819026        5.37958275313767       -0.74967742827491
H            4.27643233168009        4.15345267339941       -1.79226112941134
H            4.11802774960451        1.71113311825690       -1.56808455611460
H            7.92931972439509        0.53910910200179       -1.77847183014237
H            9.97445766969228       -0.82688106910005       -1.79660196029665
H           10.17842949517981       -2.77856596660372       -0.29674165461466
H            8.32363985252633       -3.34606890883231        1.23301309580346
H            6.28415496386872       -1.97126360925481        1.26707518879782
H            3.70749967641935        1.13308119731898        1.05445587939257
H            1.51600969493476        0.06783354329050        1.27558180413066
H            1.49283510498038       -4.31241132034888        0.57595780908141
H           -0.73932761207102       -5.35409803421696        0.68959386865262
H           -2.77160712566040       -3.95738587926613        0.54017900548928
H           -6.24663035574012       -3.31253869485724       -0.62918086666764
H           -8.64632725466464       -3.58585561786776       -1.24911972259209
H          -10.07446522223376       -1.57509970755636       -1.42466887949896
H           -9.18259530477397        0.62590391908359       -0.97420088114823
H           -8.46229164903065        2.34447434889403       -0.38010198584528
H           -7.55132399340410        4.51677735875199        0.18883694021193
H           -5.15451548577067        4.75458252860693        0.78234585783603
H           -3.69319854350629        2.80219138628110        0.74735321664573
H           -1.74309772356723        0.10311885853178        2.57720042817719
H            0.04117550826752        1.70717651437509        3.15925491207206
H            0.71842040210882        3.44591482350889        1.54012847454741
H           -0.40812576286385        3.58892279213283       -0.65318263201732
H           -2.20216135487879        1.99449637056619       -1.22858506276081
H           -0.30793940090441       -0.48459416134297        0.00429591470859
H            2.91223264797466       -3.28249908339650       -0.98092722444481
H            5.10051519210750       -2.21589640764482       -1.21522095898176
H            7.69581459385611        1.69923102648102        0.77567693043341
H            7.86272335303184        4.13947836709491        0.52880376071522
