  70
  -106.148323530500       0.472720811493336      !
 C          0.6047536253       -4.8396709067        0.3135359505
 C         -0.5817686577       -4.1180126425        0.2466712165
 C         -0.5331442652       -2.7175484305        0.1468419715
 C         -1.7755067070       -1.9393471542        0.0702843768
 C         -2.8489868195       -2.3782432705       -0.7040548731
 C         -4.0141252473       -1.6440824811       -0.7838448432
 C         -4.1415600608       -0.4541092389       -0.0709416637
 N         -5.3250176358        0.2907743342       -0.1412887598
 C         -5.4101230443        1.6460603465       -0.3890345593
 C         -4.4032778123        2.5572374407       -0.6766845982
 C         -4.7688801338        3.8685053930       -0.9149531689
 C         -6.1022144871        4.2697797874       -0.8792335718
 C         -7.1110948759        3.3621187804       -0.6200027861
 C         -6.7685519654        2.0394202745       -0.3775947941
 C         -7.5337434477        0.8539388380       -0.1044337186
 C         -8.8913432576        0.6071408140        0.0427481540
 C         -9.3023417847       -0.6804378526        0.3298158302
 C         -8.3770972487       -1.7097658937        0.4865712865
 C         -7.0201504216       -1.4881125978        0.3461193388
 C         -6.6027407450       -0.2022082212        0.0312467819
 C         -3.0792450908       -0.0117808292        0.7142743703
 C         -1.9116591198       -0.7432293604        0.7746719470
 C          0.6890489986       -2.0802985147        0.1172026427
 C          1.9149946690       -2.7891582031        0.1712242571
 C          3.1674586186       -2.1200718720        0.1162176893
 C          4.3899698412       -2.8036033588       -0.1792696800
 C          5.5605856915       -2.1413446369       -0.3015015193
 C          5.6659700023       -0.7162607626       -0.1285101342
 C          6.8214733428        0.0071277282       -0.4405029376
 C          7.9867065260       -0.6151819134       -0.9849988018
 C          9.0719823163        0.1079939019       -1.3789459914
 C          9.0655489770        1.5047618924       -1.2628909594
 C          7.9706492002        2.1391934871       -0.7083770099
 C          6.8534247318        1.4389352350       -0.2645173361
 C          5.7419422318        2.0966254787        0.3918037428
 C          5.8041096511        3.4450500993        0.7670034401
 C          4.7610347558        4.0671363290        1.4255949049
 C          3.6281975134        3.3449739872        1.7506352577
 C          3.5477373681        2.0079372284        1.3998775528
 C          4.5733548406        1.3671163617        0.7055495509
 C          4.4738872499       -0.0386589143        0.3294060834
 C          3.2896549851       -0.7223373984        0.3856115209
 C          1.8211806495       -4.2071154478        0.2729665707
 H          0.5651154544       -5.9158738239        0.4050810727
 H         -1.5332099156       -4.6239025250        0.2980423952
 H         -2.7547490410       -3.2901600783       -1.2748106353
 H         -4.8256493227       -1.9758390582       -1.4143321650
 H         -3.3690654409        2.2520867030       -0.7264857378
 H         -4.0034780109        4.5969053773       -1.1375414571
 H         -6.3470683491        5.3041968989       -1.0678428956
 H         -8.1456351909        3.6699215273       -0.6098036090
 H         -9.6072637134        1.4081859576       -0.0618012873
 H        -10.3542855466       -0.8944799481        0.4446550319
 H         -8.7270963199       -2.7027530453        0.7265710968
 H         -6.3098826869       -2.2882239473        0.4895100952
 H         -3.1858336344        0.8949756754        1.2909669409
 H         -1.1015934148       -0.4015934701        1.4019542450
 H          0.7022722391       -1.0108590026       -0.0217702293
 H          4.3735938658       -3.8683146609       -0.3501233283
 H          6.4467277917       -2.7045427864       -0.5448850974
 H          8.0076802376       -1.6859850651       -1.1024090543
 H          9.9367607954       -0.3899937416       -1.7927123885
 H          9.9135259032        2.0805926275       -1.6002551467
 H          7.9979960128        3.2146551713       -0.6335635281
 H          6.6878251773        4.0248850435        0.5563587870
 H          4.8412758311        5.1096595919        1.6959447584
 H          2.8131061472        3.8128294047        2.2824041518
 H          2.6688204396        1.4570925542        1.6952539719
 H          2.3983701798       -0.1984643912        0.6847296979
 H          2.7190422697       -4.7974182764        0.3571754224
  70
  -106.147963397600       0.322923091046464      !
 C          0.6383993534       -4.7754292111       -0.3632374329
 C         -0.5588910162       -4.0695327512       -0.3360242696
 C         -0.5365651726       -2.6788197977       -0.1366551354
 C         -1.7901061975       -1.9159853461       -0.0946262334
 C         -2.8271021342       -2.1989082324       -0.9834381114
 C         -4.0004048310       -1.4741632049       -0.9601073622
 C         -4.1735330538       -0.4525951613       -0.0291439292
 N         -5.3672442200        0.2787876057        0.0046425911
 C         -5.4714233108        1.6549184213        0.0176800553
 C         -4.4739534964        2.6180772174       -0.0463435386
 C         -4.8580029321        3.9457088816       -0.0428267060
 C         -6.1999736463        4.3144867806        0.0129832199
 C         -7.1985438855        3.3602149962        0.0507950536
 C         -6.8375161046        2.0203222655        0.0487242848
 C         -7.5871629464        0.7941733440        0.0592937045
 C         -8.9435988553        0.5043363931        0.1029545087
 C         -9.3365925694       -0.8200838896        0.1252065552
 C         -8.3957098416       -1.8472465337        0.1210111762
 C         -7.0398694189       -1.5835713373        0.0779996971
 C         -6.6395973876       -0.2553312542        0.0288457436
 C         -3.1483008569       -0.1677095368        0.8698448401
 C         -1.9723727771       -0.8873532482        0.8297973271
 C          0.6727250854       -2.0357817206        0.0202122601
 C          1.9084403404       -2.7265593840       -0.0074209949
 C          3.1517793811       -2.0539779129        0.1404688906
 C          4.3514283361       -2.7470965007        0.5011193419
 C          5.5381275893       -2.1095856796        0.5956682175
 C          5.6840961962       -0.7051016918        0.3139049665
 C          6.9258512333       -0.0803335384        0.1619085794
 C          8.1551135060       -0.8048011688        0.2330857389
 C          9.3563188125       -0.2098664656       -0.0106303856
 C          9.4118215194        1.1489475063       -0.3496933149
 C          8.2464457352        1.8895081061       -0.3982901778
 C          7.0009679270        1.3305850786       -0.1304336933
 C          5.7884011909        2.1228437955       -0.1119384243
 C          5.8218614709        3.5216463870       -0.1811942082
 C          4.6686579496        4.2809258701       -0.1308086510
 C          3.4432690041        3.6581046636        0.0150276003
 C          3.3858133994        2.2772734026        0.0987209495
 C          4.5329053682        1.4886017377        0.0171802838
 C          4.4600523183        0.0355105846        0.1095507936
 C          3.2756391817       -0.6394491252       -0.0140888628
 C          1.8414797028       -4.1361558768       -0.2017259271
 H          0.6184571656       -5.8449353997       -0.5178596874
 H         -1.5000773020       -4.5862537081       -0.4394092372
 H         -2.6971139522       -2.9761738866       -1.7217464621
 H         -4.7829278415       -1.6800607505       -1.6752037378
 H         -3.4323445567        2.3419803925       -0.1092286505
 H         -4.1004610485        4.7139337508       -0.0884883950
 H         -6.4594592068        5.3624507707        0.0167593416
 H         -8.2390336644        3.6462976613        0.0770006672
 H         -9.6725576688        1.3001919781        0.1240563782
 H        -10.3870844298       -1.0672451207        0.1566491072
 H         -8.7327781181       -2.8725104283        0.1560403945
 H         -6.3174507544       -2.3855121537        0.0946065463
 H         -3.2901632890        0.6051258964        1.6106630868
 H         -1.1932241411       -0.6717341730        1.5459656705
 H          0.6647257760       -0.9695678761        0.1794458331
 H          4.2983704631       -3.7961545939        0.7477156657
 H          6.4045729773       -2.6730613604        0.9022908140
 H          8.1346639812       -1.8556979565        0.4700291407
 H         10.2694224620       -0.7844921809        0.0441062042
 H         10.3603182161        1.6144037452       -0.5690796138
 H          8.3231965749        2.9312782530       -0.6667475500
 H          6.7651878764        4.0366904800       -0.2619453238
 H          4.7307212500        5.3574686492       -0.1914293869
 H          2.5355309940        4.2400429036        0.0744231055
 H          2.4227303773        1.8154615067        0.2484143524
 H          2.3910261186       -0.0900251106       -0.2861249454
 H          2.7523993903       -4.7093263881       -0.2637362684
  70
  -106.147118122700       0.132019369154117      !
 C          0.6038527306       -4.8582450991        0.1300143412
 C         -0.5834636864       -4.1376527679        0.0612940331
 C         -0.5326793415       -2.7342657882        0.0346977780
 C         -1.7720815696       -1.9488323219       -0.0174007255
 C         -2.8341193081       -2.3316870709       -0.8353771889
 C         -3.9969005487       -1.5904426909       -0.8819089135
 C         -4.1328523795       -0.4516247497       -0.0914967077
 N         -5.3170758120        0.2949786358       -0.1205638418
 C         -5.4045552373        1.6644451512       -0.2680102038
 C         -4.3989074630        2.5963898793       -0.4848297373
 C         -4.7661316016        3.9214989807       -0.6211672793
 C         -6.0998859992        4.3167317557       -0.5546209712
 C         -7.1076581202        3.3904285412       -0.3667071766
 C         -6.7636514155        2.0534762777       -0.2272382492
 C         -7.5265936750        0.8499305438       -0.0405600869
 C         -8.8834649575        0.5899894801        0.0907292509
 C         -9.2907715587       -0.7151970012        0.2898918964
 C         -8.3628875079       -1.7505877061        0.3749363761
 C         -7.0069593447       -1.5166866037        0.2460335864
 C         -6.5934894171       -0.2112591445        0.0189350290
 C         -3.0806029755       -0.0644309183        0.7351009866
 C         -1.9155524732       -0.8014737764        0.7626627875
 C          0.6880343694       -2.0961024327        0.0663263608
 C          1.9186009906       -2.8004055908        0.1315919946
 C          3.1693458941       -2.1288698436        0.1521013729
 C          4.4212274466       -2.8230457478        0.0749531751
 C          5.5987107500       -2.1651234165        0.0139205255
 C          5.6850272765       -0.7290725407        0.0242335182
 C          6.8626212889       -0.0294843693       -0.2611018977
 C          8.0693510850       -0.6947530730       -0.6349150454
 C          9.1889993700       -0.0066182999       -0.9955011474
 C          9.1764851893        1.3941177377       -1.0133750285
 C          8.0349453462        2.0726964113       -0.6331556893
 C          6.8769740930        1.4119395714       -0.2344178219
 C          5.7040042107        2.1241459683        0.2307654657
 C          5.7238305944        3.5072162160        0.4535813635
 C          4.6179885435        4.1847839159        0.9286552669
 C          3.4600940069        3.4878893786        1.2202523114
 C          3.4194379599        2.1191821890        1.0184859378
 C          4.5112587443        1.4188678148        0.5063402824
 C          4.4530216246       -0.0214563081        0.2830026137
 C          3.2697063305       -0.7080003350        0.2906589594
 C          1.8187072304       -4.2234855307        0.1655007577
 H          0.5657992122       -5.9378978800        0.1616729479
 H         -1.5345642132       -4.6464476125        0.0562817268
 H         -2.7331482136       -3.2037890955       -1.4642205457
 H         -4.8004074469       -1.8771355265       -1.5439055946
 H         -3.3643428971        2.2970208626       -0.5576295415
 H         -4.0018144762        4.6661759569       -0.7866449968
 H         -6.3459233010        5.3624112489       -0.6609773968
 H         -8.1423617686        3.6952706652       -0.3328969826
 H         -9.6016505270        1.3944473242        0.0428970399
 H        -10.3420218586       -0.9390922657        0.3922708971
 H         -8.7099391269       -2.7581482836        0.5494259765
 H         -6.2940410428       -2.3224779183        0.3330431815
 H         -3.1940014216        0.8019746842        1.3695227684
 H         -1.1141408652       -0.5057131262        1.4235113296
 H          0.6910112496       -1.0211374249       -0.0100755056
 H          4.4329828700       -3.9005821385        0.0492087875
 H          6.5077401978       -2.7418355612       -0.0437651544
 H          8.0949376264       -1.7717533099       -0.6500680300
 H         10.0860279872       -0.5370405597       -1.2798355194
 H         10.0548871019        1.9399687175       -1.3213186348
 H          8.0584471505        3.1503990290       -0.6621657274
 H          6.6219924662        4.0726032798        0.2661781253
 H          4.6669601084        5.2524935455        1.0836785348
 H          2.5942912734        4.0014802720        1.6110847283
 H          2.5171938273        1.5926086221        1.2866119687
 H          2.3574741237       -0.1546635014        0.4247136768
 H          2.7100853938       -4.8238852730        0.2362007117
  70
  -106.145777256300       3.194612020890795E-002 !
 C          0.6103183805       -4.8538842249        0.3694501229
 C         -0.5755104854       -4.1309554983        0.3068501368
 C         -0.5275843271       -2.7300956880        0.2112422195
 C         -1.7681587034       -1.9505748995        0.1254151478
 C         -2.8420659572       -2.3979870438       -0.6438016390
 C         -4.0028985546       -1.6594819211       -0.7407906258
 C         -4.1255034185       -0.4545634568       -0.0525544321
 N         -5.3029823628        0.2968704663       -0.1475468094
 C         -5.3787054093        1.6440671577       -0.4385328299
 C         -4.3635459519        2.5442535071       -0.7314778673
 C         -4.7203067641        3.8489766549       -1.0148406593
 C         -6.0528700867        4.2541498074       -1.0188861373
 C         -7.0695731218        3.3566717750       -0.7545100265
 C         -6.7359523454        2.0409285485       -0.4663103584
 C         -7.5102031850        0.8664543949       -0.1719921903
 C         -8.8711590078        0.6272495636       -0.0441246867
 C         -9.2909296262       -0.6491067843        0.2778661714
 C         -8.3717097137       -1.6742716698        0.4883080066
 C         -7.0118434973       -1.4604665714        0.3661841377
 C         -6.5852868787       -0.1869311987        0.0155419795
 C         -3.0639957355       -0.0042136777        0.7290674719
 C         -1.9011736326       -0.7414619473        0.8081852293
 C          0.6955799327       -2.0936433200        0.1859079182
 C          1.9193801213       -2.8046306093        0.2322386232
 C          3.1701114361       -2.1323482854        0.1675017274
 C          4.3833248291       -2.8038975977       -0.1869356992
 C          5.5422603559       -2.1298894025       -0.3507646496
 C          5.6402513884       -0.7064922213       -0.1586080696
 C          6.7556861048        0.0434863406       -0.5425603762
 C          7.8728919421       -0.5410221243       -1.2142900756
 C          8.9049353755        0.2141830862       -1.6841851134
 C          8.8894014242        1.6063326912       -1.5209132656
 C          7.8440585562        2.2034131520       -0.8425406047
 C          6.7853455119        1.4688457726       -0.3190908015
 C          5.7335743118        2.0831395262        0.4649351245
 C          5.8271891390        3.4072859518        0.9116361734
 C          4.8396361633        3.9850599853        1.6864477252
 C          3.7353364059        3.2409473101        2.0574395569
 C          3.6275150053        1.9249849265        1.6399525342
 C          4.5960035872        1.3307267971        0.8321412523
 C          4.4745071424       -0.0551338516        0.3959363480
 C          3.2963984046       -0.7451896560        0.4832020814
 C          1.8274551074       -4.2221815007        0.3270264378
 H          0.5697317521       -5.9303192601        0.4573485040
 H         -1.5266609612       -4.6374624900        0.3569165520
 H         -2.7513125036       -3.3201769688       -1.1982836517
 H         -4.8143405362       -1.9986730144       -1.3673576894
 H         -3.3293993707        2.2356219393       -0.7510062645
 H         -3.9482602977        4.5689275419       -1.2421385899
 H         -6.2907785140        5.2832102462       -1.2422707435
 H         -8.1031731017        3.6670004739       -0.7751135491
 H         -9.5829131724        1.4255774735       -0.1897913450
 H        -10.3455065407       -0.8570560738        0.3790452812
 H         -8.7289446234       -2.6572906916        0.7566761211
 H         -6.3060949398       -2.2562665758        0.5502591009
 H         -3.1670307972        0.9143102764        1.2874252927
 H         -1.0917884523       -0.3920545903        1.4318821611
 H          0.7133767633       -1.0237608594        0.0496690090
 H          4.3645645335       -3.8662300336       -0.3727128328
 H          6.4236981873       -2.6793626089       -0.6389783966
 H          7.8937377713       -1.6064701889       -1.3737532809
 H          9.7325843782       -0.2540966210       -2.1967190534
 H          9.6918524440        2.2076226529       -1.9195974244
 H          7.8605287521        3.2764809255       -0.7345311059
 H          6.6936259152        3.9999978982        0.6668785450
 H          4.9417035716        5.0102289733        2.0102628488
 H          2.9651143060        3.6746409831        2.6774547869
 H          2.7766228361        1.3514589135        1.9724482676
 H          2.4186692111       -0.2393476695        0.8476629549
 H          2.7265944855       -4.8114147750        0.4069946942
  70
  -106.145472506700       2.314008246691361E-002 !
 C          0.6101668211       -4.7936135289       -0.5071092792
 C         -0.5798641556       -4.0774032448       -0.4456267500
 C         -0.5420126557       -2.6912896315       -0.2164359944
 C         -1.7893293841       -1.9222616255       -0.1302427087
 C         -2.8452277850       -2.1778442220       -1.0052998321
 C         -4.0137384580       -1.4480051804       -0.9407341745
 C         -4.1626010242       -0.4492719907        0.0188973079
 N         -5.3513294018        0.2875185181        0.0930112307
 C         -5.4476348429        1.6634697295        0.1340841897
 C         -4.4456131568        2.6220751329        0.0727625748
 C         -4.8218137082        3.9514065042        0.1090928205
 C         -6.1606749468        4.3261609230        0.1934041703
 C         -7.1640950955        3.3768518412        0.2295730169
 C         -6.8109390916        2.0353021471        0.1965776927
 C         -7.5669465262        0.8128795442        0.1997262536
 C         -8.9235341687        0.5285969521        0.2670394336
 C         -9.3225246629       -0.7943488850        0.2762095183
 C         -8.3872659740       -1.8257763574        0.2347861009
 C         -7.0312771853       -1.5676981683        0.1669194851
 C         -6.6256066534       -0.2406270198        0.1324774026
 C         -3.1185634422       -0.1922050463        0.9045627177
 C         -1.9474289523       -0.9161489132        0.8230583789
 C          0.6757839159       -2.0610040341       -0.0734463810
 C          1.9039989705       -2.7612596745       -0.1487549752
 C          3.1548064886       -2.0951047736       -0.0329921323
 C          4.3625128133       -2.7891632299        0.2888440414
 C          5.5375391676       -2.1366234621        0.4204531534
 C          5.6682023623       -0.7167103746        0.2207842360
 C          6.8754810356       -0.0356761387        0.4114288011
 C          8.0691823771       -0.7026740036        0.8282566284
 C          9.2293524190       -0.0287841259        1.0630277355
 C          9.2774291780        1.3625147762        0.9025103011
 C          8.1496582203        2.0399809697        0.4816714177
 C          6.9483015364        1.3913753932        0.2105765369
 C          5.7826643435        2.1015186238       -0.2755378685
 C          5.8355502151        3.4673972455       -0.5854037495
 C          4.7347318940        4.1542680961       -1.0592017408
 C          3.5421553424        3.4833104634       -1.2490550036
 C          3.4673011839        2.1313116172       -0.9604336253
 C          4.5604049978        1.4171620024       -0.4680946799
 C          4.4684630742       -0.0086378675       -0.1679315336
 C          3.2834151250       -0.6907155438       -0.2506314783
 C          1.8218955141       -4.1673342750       -0.3597123336
 H          0.5773617293       -5.8600546267       -0.6796733461
 H         -1.5274357552       -4.5837167402       -0.5430386917
 H         -2.7334486511       -2.9358123758       -1.7662757753
 H         -4.8120059951       -1.6324214269       -1.6443187602
 H         -3.4067859246        2.3411549342       -0.0113988442
 H         -4.0607666781        4.7163152843        0.0667098430
 H         -6.4139032358        5.3752441817        0.2223749245
 H         -8.2022487923        3.6682443387        0.2790701598
 H         -9.6479993895        1.3271978241        0.3174906699
 H        -10.3733268890       -1.0369123389        0.3264798842
 H         -8.7286496641       -2.8498982390        0.2604161870
 H         -6.3125237298       -2.3729912946        0.1529809254
 H         -3.2419744130        0.5620402877        1.6675002272
 H         -1.1528823918       -0.7226501560        1.5285084860
 H          0.6837369542       -0.9991525469        0.1153141479
 H          4.3286769269       -3.8509604719        0.4767091380
 H          6.4094371588       -2.7078211794        0.6931718438
 H          8.0578996898       -1.7707073476        0.9678812377
 H         10.1143829146       -0.5618210201        1.3784960269
 H         10.1912110710        1.9006457764        1.1022718037
 H          8.2247207735        3.1095152384        0.3689465013
 H          6.7558003353        4.0146662869       -0.4655192717
 H          4.8131216044        5.2076953219       -1.2838426218
 H          2.6726355838        4.0025392516       -1.6238008252
 H          2.5274746165        1.6342137700       -1.1381318335
 H          2.3918087091       -0.1635228907       -0.5409592927
 H          2.7264858477       -4.7469155362       -0.4483791285
  70
  -106.145194936200       1.725052563026213E-002 !
 C          0.6035860913       -4.8321311910       -0.4228485387
 C         -0.5839878219       -4.1151517785       -0.3322550335
 C         -0.5346553390       -2.7168936297       -0.1979230265
 C         -1.7774949507       -1.9404795060       -0.1089652237
 C         -2.8785703425       -2.2722439683       -0.8988229519
 C         -4.0443019241       -1.5379113732       -0.8379859429
 C         -4.1431223773       -0.4534489139        0.0304088160
 N         -5.3272211956        0.2915281380        0.0969096848
 C         -5.4234236991        1.6647392591        0.0019944299
 C         -4.4276254658        2.6074951410       -0.2126545724
 C         -4.8034868078        3.9348186085       -0.2952661432
 C         -6.1362099545        4.3218652012       -0.1765368871
 C         -7.1347125316        3.3856149284        0.0121668284
 C         -6.7821157857        2.0461771672        0.0972832405
 C         -7.5351930628        0.8331452653        0.2622710082
 C         -8.8867470482        0.5613275876        0.4211013599
 C         -9.2831771532       -0.7529586056        0.5784431942
 C         -8.3495500176       -1.7865958946        0.5949361950
 C         -6.9986859907       -1.5410192748        0.4379979057
 C         -6.5970407576       -0.2252653224        0.2529935990
 C         -3.0536942496       -0.1184411542        0.8309721662
 C         -1.8874957862       -0.8513699001        0.7556920343
 C          0.6874583756       -2.0811488179       -0.1586981019
 C          1.9176332941       -2.7810213600       -0.2607723531
 C          3.1698094514       -2.1117518824       -0.2324287764
 C          4.4163650124       -2.8141859194       -0.1477480343
 C          5.5941211095       -2.1641280150       -0.0325111699
 C          5.6869672355       -0.7292986298        0.0045041248
 C          6.8654722393       -0.0473412609        0.3275507431
 C          8.0661247790       -0.7312854300        0.6871715041
 C          9.1813673650       -0.0623148945        1.0944972606
 C          9.1699123191        1.3361266352        1.1780856581
 C          8.0365170000        2.0337195439        0.8078935324
 C          6.8859175002        1.3936800919        0.3574663127
 C          5.7256570362        2.1280024356       -0.1049926215
 C          5.7613561349        3.5167525971       -0.2866080218
 C          4.6685913043        4.2182375571       -0.7569157811
 C          3.5082245568        3.5408376381       -1.0830490550
 C          3.4529777793        2.1669959067       -0.9244448086
 C          4.5326949779        1.4407589309       -0.4220943572
 C          4.4628189591       -0.0065002998       -0.2516570614
 C          3.2774824141       -0.6875649282       -0.3145399142
 C          1.8192489302       -4.1985953204       -0.3916613019
 H          0.5657423541       -5.9076025459       -0.5234967307
 H         -1.5334174303       -4.6269089588       -0.3363902336
 H         -2.8062345781       -3.0964090420       -1.5926889606
 H         -4.8790232050       -1.7847885858       -1.4770883039
 H         -3.3946188424        2.3146308846       -0.3238575946
 H         -4.0472172476        4.6879379364       -0.4593255316
 H         -6.3892963191        5.3692954379       -0.2432073099
 H         -8.1690507434        3.6849560752        0.0872504572
 H         -9.6092732613        1.3632496844        0.4253853780
 H        -10.3302751530       -0.9860833115        0.7002945122
 H         -8.6880757665       -2.8020964013        0.7369899042
 H         -6.2800277922       -2.3458817740        0.4705253853
 H         -3.1369229635        0.7050842350        1.5245859937
 H         -1.0573577920       -0.5948145445        1.3971396783
 H          0.6926058334       -1.0089837781       -0.0504656293
 H          4.4226202302       -3.8920841668       -0.1516543610
 H          6.4980874421       -2.7474368114        0.0350205107
 H          8.0918854759       -1.8078033544        0.6515354118
 H         10.0740898791       -0.6068856806        1.3654802662
 H         10.0436037618        1.8652519741        1.5261757138
 H          8.0603580162        3.1091014020        0.8857677349
 H          6.6631405385        4.0667831265       -0.0724760467
 H          4.7291535553        5.2894371469       -0.8805545695
 H          2.6520926449        4.0739195469       -1.4690733857
 H          2.5491984177        1.6579619777       -1.2199031762
 H          2.3697583028       -0.1284475275       -0.4566356545
 H          2.7117948375       -4.7934951183       -0.4905221853
