  70
       -106.57830344
 C          0.6550759900       -4.7750308166       -0.3378986022
 C         -0.5446564179       -4.0731358582       -0.3150903964
 C         -0.5272461336       -2.6813318399       -0.1229772247
 C         -1.7834341972       -1.9226166482       -0.0856846393
 C         -2.8189010896       -2.2137531331       -0.9736262752
 C         -3.9947085338       -1.4929475135       -0.9547845652
 C         -4.1719298219       -0.4671342591       -0.0292753297
 N         -5.3681749279        0.2602931853       -0.0000248843
 C         -5.4771037299        1.6361057942        0.0057597106
 C         -4.4829197385        2.6023518974       -0.0626988674
 C         -4.8715441695        3.9286512237       -0.0663487821
 C         -6.2148119054        4.2930845397       -0.0132692929
 C         -7.2101107884        3.3355845751        0.0289307939
 C         -6.8444665091        1.9969525669        0.0340770455
 C         -7.5898898107        0.7682971148        0.0506045778
 C         -8.9453454987        0.4740151332        0.0949677632
 C         -9.3337864020       -0.8516185353        0.1239045875
 C         -8.3893671260       -1.8755375891        0.1256390982
 C         -7.0344171641       -1.6074155120        0.0820615695
 C         -6.6386945742       -0.2780775207        0.0262076055
 C         -3.1482396323       -0.1740224974        0.8688257642
 C         -1.9698140997       -0.8898051563        0.8332424374
 C          0.6797240614       -2.0333158472        0.0312514950
 C          1.9178292769       -2.7199619606        0.0079671928
 C          3.1587517679       -2.0423325975        0.1530845289
 C          4.3605597037       -2.7294159993        0.5180692194
 C          5.5449964818       -2.0873305649        0.6099956472
 C          5.6862977981       -0.6838422409        0.3209850972
 C          6.9259858614       -0.0555970190        0.1664691880
 C          8.1576933450       -0.7754386141        0.2421661057
 C          9.3569912554       -0.1776451752       -0.0039366480
 C          9.4080199197        1.1795627096       -0.3500615727
 C          8.2401291603        1.9158352584       -0.4032243755
 C          6.9964200431        1.3540261652       -0.1331962430
 C          5.7811191195        2.1421834629       -0.1195661975
 C          5.8098014259        3.5407123473       -0.1961098371
 C          4.6539573524        4.2962623803       -0.1503821144
 C          3.4306323670        3.6699883445       -0.0020266383
 C          3.3778840548        2.2894230786        0.0888461114
 C          4.5277371007        1.5042976368        0.0121136310
 C          4.4598351070        0.0514661044        0.1120317728
 C          3.2778314113       -0.6282115398       -0.0087879931
 C          1.8558464265       -4.1307766566       -0.1790098802
 H          0.6389148551       -5.8453924285       -0.4869424122
 H         -1.4839925448       -4.5936330985       -0.4163370607
 H         -2.6857801916       -2.9944113550       -1.7077853945
 H         -4.7760765449       -1.7052751039       -1.6692633354
 H         -3.4403269670        2.3295248503       -0.1235173878
 H         -4.1166261875        4.6992355400       -0.1155706942
 H         -6.4779096152        5.3401526819       -0.0151241262
 H         -8.2515962158        3.6182095514        0.0530188162
 H         -9.6770554646        1.2674509490        0.1114748774
 H        -10.3834394528       -1.1022341574        0.1560097246
 H         -8.7229217376       -2.9017610914        0.1658232621
 H         -6.3092495735       -2.4067620475        0.1032905358
 H         -3.2932209871        0.6021777416        1.6055107896
 H         -1.1918546046       -0.6677622671        1.5487403464
 H          0.6679523746       -0.9663188085        0.1849070476
 H          4.3109653813       -3.7773485903        0.7701117864
 H          6.4131894200       -2.6462051024        0.9200765130
 H          8.1407194557       -1.8251478047        0.4845849980
 H         10.2720358106       -0.7488241832        0.0543478655
 H         10.3550419750        1.6471356279       -0.5713094767
 H          8.3134548905        2.9564475903       -0.6770754352
 H          6.7513969062        4.0585784016       -0.2789866676
 H          4.7123477297        5.3726815258       -0.2165898874
 H          2.5208578881        4.2490943499        0.0537843661
 H          2.4163061507        1.8250801156        0.2403743156
 H          2.3914980202       -0.0832704147       -0.2842202705
 H          2.7687739599       -4.7011177878       -0.2374795932
  70
       -106.57827793
 C          0.6273479638       -4.8501884090        0.3889484757
 C         -0.5610092666       -4.1316965208        0.3232879782
 C         -0.5180010691       -2.7310701671        0.2220846632
 C         -1.7612990930       -1.9562727111        0.1329630890
 C         -2.8335034631       -2.4105367937       -0.6346115418
 C         -3.9969140271       -1.6765182266       -0.7347194921
 C         -4.1238689402       -0.4692962846       -0.0513256457
 N         -5.3039715859        0.2776002594       -0.1494910935
 C         -5.3843921863        1.6233474410       -0.4458739866
 C         -4.3723627483        2.5259246392       -0.7422720308
 C         -4.7336710089        3.8282396142       -1.0309020502
 C         -6.0676521056        4.2286978430       -1.0367585586
 C         -7.0812301618        3.3287092353       -0.7689402653
 C         -6.7430237492        2.0153121875       -0.4754326396
 C         -7.5131804652        0.8393049977       -0.1765299692
 C         -8.8733056312        0.5958219419       -0.0479012947
 C         -9.2886299282       -0.6807069272        0.2791320157
 C         -8.3658389843       -1.7017783762        0.4938039189
 C         -7.0067148830       -1.4836755603        0.3710202686
 C         -6.5845901955       -0.2100583089        0.0153481407
 C         -3.0640763559       -0.0120886673        0.7286404807
 C         -1.8986779179       -0.7449148626        0.8108726022
 C          0.7029185089       -2.0904204387        0.1943798026
 C          1.9292073330       -2.7969023961        0.2437288153
 C          3.1775738188       -2.1204837130        0.1764823075
 C          4.3931999801       -2.7891682771       -0.1750928550
 C          5.5497807321       -2.1117433175       -0.3414506491
 C          5.6427289451       -0.6872527768       -0.1549747572
 C          6.7555762191        0.0651079603       -0.5417642215
 C          7.8749387612       -0.5181440148       -1.2109909771
 C          8.9043903623        0.2388059116       -1.6837553103
 C          8.8839288610        1.6315339951       -1.5260551671
 C          7.8363835304        2.2276374394       -0.8502255144
 C          6.7801814045        1.4914453011       -0.3239932023
 C          5.7261305793        2.1051616799        0.4574191024
 C          5.8150121211        3.4314054284        0.8988337719
 C          4.8253091608        4.0087919181        1.6711870242
 C          3.7235781571        3.2622843681        2.0449942474
 C          3.6204567250        1.9442913448        1.6327586056
 C          4.5911586355        1.3502218812        0.8274690936
 C          4.4746113078       -0.0377914312        0.3967933371
 C          3.2989259937       -0.7316374852        0.4866499721
 C          1.8422594544       -4.2143778279        0.3441725036
 H          0.5905381038       -5.9263995774        0.4811457646
 H         -1.5103781949       -4.6413458379        0.3752438975
 H         -2.7394163042       -3.3346114787       -1.1853876601
 H         -4.8070582221       -2.0210679699       -1.3600408736
 H         -3.3371327775        2.2208613908       -0.7604180052
 H         -3.9641287195        4.5499902528       -1.2609673797
 H         -6.3091474808        5.2560124576       -1.2642913151
 H         -8.1159132085        3.6353110214       -0.7909325992
 H         -9.5878435545        1.3910493312       -0.1968616029
 H        -10.3424839543       -0.8919626178        0.3809912950
 H         -8.7196524334       -2.6849682937        0.7660505945
 H         -6.2981974622       -2.2762426291        0.5583776048
 H         -3.1704327466        0.9082923458        1.2833052832
 H         -1.0906260340       -0.3901677223        1.4332827188
 H          0.7169693766       -1.0210353344        0.0538653232
 H          4.3782096367       -3.8522946535       -0.3566221749
 H          6.4331931414       -2.6592571092       -0.6273383579
 H          7.8995611349       -1.5841412578       -1.3661884561
 H          9.7337636067       -0.2286020603       -2.1942938542
 H          9.6843202550        2.2340470688       -1.9270263981
 H          7.8490581997        3.3011799298       -0.7465064720
 H          6.6793949067        4.0261815304        0.6518312949
 H          4.9237152816        5.0356008005        1.9909137800
 H          2.9517363639        3.6957388775        2.6631597634
 H          2.7715371147        1.3691065279        1.9674239691
 H          2.4193638589       -0.2274363078        0.8489592386
 H          2.7434554847       -4.8001163602        0.4266254081
  70
       -106.57827463
 C          0.6212348122       -4.8358525420        0.3391809614
 C         -0.5677259197       -4.1186503117        0.2678366560
 C         -0.5238664799       -2.7185672180        0.1607203674
 C         -1.7688559095       -1.9450663178        0.0793544906
 C         -2.8403397915       -2.3917009352       -0.6933229556
 C         -4.0079519196       -1.6619901735       -0.7776448528
 C         -4.1399260506       -0.4687563310       -0.0710454485
 N         -5.3258999845        0.2716631361       -0.1459915881
 C         -5.4155226877        1.6253350781       -0.4008663250
 C         -4.4116463979        2.5384648426       -0.6926710392
 C         -4.7816184436        3.8472015695       -0.9380064768
 C         -6.1163494785        4.2440556026       -0.9051816685
 C         -7.1222555169        3.3342864037       -0.6418154036
 C         -6.7753059006        2.0140614285       -0.3922946709
 C         -7.5365757066        0.8273905546       -0.1134009034
 C         -8.8934073975        0.5766833293        0.0342563415
 C         -9.3001431487       -0.7107884250        0.3278018628
 C         -8.3714536874       -1.7360861330        0.4904869423
 C         -7.0151924706       -1.5104902455        0.3496905215
 C         -6.6020227055       -0.2248158584        0.0283530874
 C         -3.0796257733       -0.0186711902        0.7124840184
 C         -1.9095635137       -0.7457625905        0.7774010828
 C          0.6961415176       -2.0772688856        0.1284829043
 C          1.9244892040       -2.7816038872        0.1869409777
 C          3.1746736213       -2.1084978428        0.1291883874
 C          4.3997149709       -2.7893424596       -0.1619920852
 C          5.5681167448       -2.1236973244       -0.2869823049
 C          5.6684827954       -0.6973743356       -0.1213764214
 C          6.8216784257        0.0283561281       -0.4364534281
 C          7.9893845528       -0.5927659750       -0.9769931040
 C          9.0724042980        0.1320815367       -1.3740642629
 C          9.0610860490        1.5294061276       -1.2653128831
 C          7.9636649503        2.1629448712       -0.7147765244
 C          6.8485869890        1.4611649646       -0.2679324292
 C          5.7344403810        2.1184364383        0.3842782032
 C          5.7917293775        3.4690087347        0.7524642990
 C          4.7461112519        4.0909247080        1.4071722411
 C          3.6155693151        3.3665666982        1.7353037690
 C          3.5399333991        2.0274466032        1.3914888824
 C          4.5681807924        1.3865494933        0.7011323440
 C          4.4737900720       -0.0215059237        0.3322798385
 C          3.2918864689       -0.7089622224        0.3913483435
 C          1.8354995183       -4.1993255513        0.2960346779
 H          0.5852491996       -5.9116929643        0.4363243321
 H         -1.5174496447       -4.6275437758        0.3212812702
 H         -2.7426083027       -3.3062558650       -1.2592496292
 H         -4.8179392300       -1.9998324528       -1.4068754669
 H         -3.3763580887        2.2366272759       -0.7402583845
 H         -4.0185940035        4.5770648114       -1.1639397517
 H         -6.3646503436        5.2766227775       -1.0993397505
 H         -8.1578565034        3.6385679567       -0.6338435262
 H         -9.6120195408        1.3746973024       -0.0749054335
 H        -10.3514136153       -0.9278549904        0.4431285782
 H         -8.7181765509       -2.7290075719        0.7354624803
 H         -6.3022601666       -2.3073870737        0.4976848138
 H         -3.1896938268        0.8907119438        1.2843669929
 H         -1.1010666352       -0.3980629616        1.4033742250
 H          0.7057648951       -1.0085305624       -0.0160680228
 H          4.3871135049       -3.8549817541       -0.3272899848
 H          6.4563442424       -2.6850990609       -0.5268896747
 H          8.0141206053       -1.6640890365       -1.0887941737
 H          9.9391485752       -0.3650745646       -1.7847056042
 H          9.9072812859        2.1063884629       -1.6051738892
 H          7.9872593210        3.2388705641       -0.6455670716
 H          6.6735711095        4.0507803258        0.5393215315
 H          4.8225925777        5.1351163530        1.6721191083
 H          2.7985429703        3.8343788726        2.2641331413
 H          2.6627381181        1.4751238174        1.6892136387
 H          2.3986174723       -0.1866114965        0.6871919414
 H          2.7353380015       -4.7860800071        0.3838638417
  70
       -106.57808049
 C          0.6198108624       -4.8255378525       -0.4718345391
 C         -0.5701339526       -4.1136158749       -0.3728552713
 C         -0.5254852228       -2.7166102454       -0.2245771717
 C         -1.7709021904       -1.9454317938       -0.1265819918
 C         -2.8716577101       -2.2730811580       -0.9186003550
 C         -4.0398515643       -1.5434334773       -0.8492245433
 C         -4.1414986663       -0.4680675029        0.0300874904
 N         -5.3280904015        0.2721037656        0.1052521903
 C         -5.4291307917        1.6458550931        0.0241920883
 C         -4.4368183253        2.5941534839       -0.1820192096
 C         -4.8173444282        3.9209286419       -0.2509508618
 C         -6.1512693966        4.3021522684       -0.1269935624
 C         -7.1463359712        3.3606095037        0.0533416707
 C         -6.7890298716        2.0216151351        0.1246804200
 C         -7.5377426416        0.8043931251        0.2782789555
 C         -8.8881825463        0.5263228128        0.4357561644
 C         -9.2799091237       -0.7908368855        0.5803317370
 C         -8.3427039317       -1.8213499576        0.5855210529
 C         -6.9928614381       -1.5695405607        0.4296737167
 C         -6.5959539736       -0.2506182028        0.2574464589
 C         -3.0523902481       -0.1373225106        0.8328552811
 C         -1.8837495751       -0.8654202129        0.7490506618
 C          0.6944681050       -2.0770639758       -0.1802326259
 C          1.9269425228       -2.7716176627       -0.2905641433
 C          3.1768309511       -2.0983356255       -0.2567952842
 C          4.4258914887       -2.7972635992       -0.1804236133
 C          5.6015181758       -2.1443195305       -0.0598824420
 C          5.6894515472       -0.7096198619       -0.0085942088
 C          6.8659359871       -0.0268559385        0.3200648883
 C          8.0693196467       -0.7102064175        0.6715945883
 C          9.1826756815       -0.0414912841        1.0844629513
 C          9.1664831873        1.3559953279        1.1820637846
 C          8.0302980762        2.0533323935        0.8200314162
 C          6.8814401185        1.4138558428        0.3643895353
 C          5.7181660932        2.1487509967       -0.0895097591
 C          5.7488814884        3.5393649795       -0.2572443875
 C          4.6532077000        4.2417367742       -0.7193897370
 C          3.4948424202        3.5636237236       -1.0511081726
 C          3.4445037871        2.1880800466       -0.9062143116
 C          4.5272491966        1.4605916823       -0.4122624839
 C          4.4625472242        0.0114655299       -0.2562565231
 C          3.2795022876       -0.6730338830       -0.3247491355
 C          1.8333125113       -4.1881422606       -0.4355428231
 H          0.5855724533       -5.9000722473       -0.5832096169
 H         -1.5177958247       -4.6285889806       -0.3811480038
 H         -2.7972094644       -3.0900032468       -1.6207586913
 H         -4.8743888063       -1.7867877190       -1.4899164408
 H         -3.4029249943        2.3059942264       -0.2972020691
 H         -4.0638514039        4.6782656347       -0.4082302131
 H         -6.4080387037        5.3493152410       -0.1829130204
 H         -8.1816212832        3.6556022758        0.1324731878
 H         -9.6134667250        1.3256563242        0.4488071637
 H        -10.3260674988       -1.0287924536        0.7009090784
 H         -8.6775736514       -2.8393872700        0.7177425317
 H         -6.2713963218       -2.3721962219        0.4534068436
 H         -3.1377294308        0.6789247530        1.5347661414
 H         -1.0538265155       -0.6124277131        1.3921893172
 H          0.6960298466       -1.0060248017       -0.0612734498
 H          4.4358620389       -3.8750406174       -0.1951309641
 H          6.5075625845       -2.7251429877        0.0008831022
 H          8.0987573589       -1.7862180293        0.6251530293
 H         10.0775570066       -0.5856545992        1.3490689186
 H         10.0387098085        1.8846301037        1.5345450513
 H          8.0505101720        3.1279568258        0.9086470293
 H          6.6489876265        4.0903420774       -0.0385336780
 H          4.7099429308        5.3143236417       -0.8323562037
 H          2.6364699084        4.0975771429       -1.4309019758
 H          2.5421755609        1.6789045142       -1.2058346908
 H          2.3697050489       -0.1156669991       -0.4603134027
 H          2.7278012726       -4.7789298168       -0.5412658566
  70
       -106.57803676
 C          0.6259181812       -4.7857883859       -0.5591511341
 C         -0.5664745194       -4.0743426715       -0.4887548197
 C         -0.5330905502       -2.6906463532       -0.2447423267
 C         -1.7829217422       -1.9268467668       -0.1490106149
 C         -2.8388821664       -2.1766282382       -1.0256665709
 C         -4.0097977349       -1.4515142895       -0.9520633338
 C         -4.1610267615       -0.4636464642        0.0183837648
 N         -5.3521733095        0.2682471138        0.1016302347
 C         -5.4531124678        1.6433420105        0.1575656753
 C         -4.4544221979        2.6059627725        0.1054971381
 C         -4.8351012592        3.9335368303        0.1564795837
 C         -6.1751378347        4.3027957048        0.2461933179
 C         -7.1752851210        3.3497357262        0.2732117539
 C         -6.8176053437        2.0098297313        0.2254567755
 C         -7.5694482657        0.7848717734        0.2162699999
 C         -8.9249885697        0.4952572655        0.2819328452
 C         -9.3194685800       -0.8290642312        0.2773189967
 C         -8.3807532888       -1.8567914680        0.2238617775
 C         -7.0257233308       -1.5933758089        0.1573649517
 C         -6.6246044337       -0.2646353736        0.1367456250
 C         -3.1169207597       -0.2125349990        0.9056755960
 C         -1.9434195869       -0.9315634893        0.8151952067
 C          0.6827084930       -2.0577802137       -0.0962580186
 C          1.9132159653       -2.7529937184       -0.1803479108
 C          3.1618746098       -2.0838558652       -0.0587380504
 C          4.3722780025       -2.7772028344        0.2543814754
 C          5.5452192385       -2.1221077580        0.3917690214
 C          5.6708398145       -0.6996969824        0.2072133944
 C          6.8759995451       -0.0166325095        0.4039053499
 C          8.0724078309       -0.6839873826        0.8123158897
 C          9.2305308080       -0.0087008797        1.0531039189
 C          9.2737047194        1.3843957997        0.9074759279
 C          8.1431865069        2.0624862797        0.4950986560
 C          6.9437522554        1.4127316288        0.2183029188
 C          5.7751869928        2.1240681298       -0.2589562332
 C          5.8230963715        3.4933646514       -0.5542017518
 C          4.7194418954        4.1815192468       -1.0194620318
 C          3.5289507798        3.5085724047       -1.2152698180
 C          3.4590032953        2.1533077333       -0.9410958861
 C          4.5550559322        1.4376508904       -0.4575804697
 C          4.4682840890        0.0084077662       -0.1726397041
 C          3.2854741654       -0.6767821984       -0.2614275200
 C          1.8356677292       -4.1569963147       -0.4062964608
 H          0.5965543586       -5.8504226792       -0.7431150812
 H         -1.5124229805       -4.5828116487       -0.5906134792
 H         -2.7253420723       -2.9260038262       -1.7948476666
 H         -4.8081871491       -1.6310944808       -1.6567597082
 H         -3.4147366054        2.3295070339        0.0172508115
 H         -4.0767052348        4.7014480242        0.1215194748
 H         -6.4319004356        5.3506378589        0.2866821007
 H         -8.2143699362        3.6370372520        0.3269074988
 H         -9.6521104288        1.2907949063        0.3417007324
 H        -10.3693855227       -1.0757362698        0.3260711882
 H         -8.7186252475       -2.8822879948        0.2388539936
 H         -6.3042513186       -2.3960164475        0.1340417176
 H         -3.2420778568        0.5330572822        1.6767902348
 H         -1.1487800078       -0.7429340685        1.5218583090
 H          0.6872533816       -0.9979937645        0.1038779226
 H          4.3422538477       -3.8410635160        0.4308766457
 H          6.4193460596       -2.6932204447        0.6574399138
 H          8.0649062394       -1.7534893431        0.9404831127
 H         10.1177061118       -0.5420689491        1.3619178344
 H         10.1858651870        1.9234670613        1.1120546059
 H          8.2144912822        3.1334180861        0.3937796514
 H          6.7416083569        4.0424523059       -0.4294040925
 H          4.7940086399        5.2375569377       -1.2328667840
 H          2.6572695398        4.0288220442       -1.5835220471
 H          2.5206824464        1.6549414969       -1.1231452710
 H          2.3917697951       -0.1495501223       -0.5451583267
 H          2.7421279195       -4.7325037959       -0.5021138546
  70
       -106.57799964
 C          0.6201775272       -4.8552758181        0.1605112362
 C         -0.5694877807       -4.1391631675        0.0858440446
 C         -0.5234350768       -2.7358002079        0.0507302690
 C         -1.7654279862       -1.9549237316       -0.0077796358
 C         -2.8250799618       -2.3463842231       -0.8247764446
 C         -3.9903096506       -1.6094008836       -0.8773499696
 C         -4.1311704552       -0.4662425296       -0.0940953049
 N         -5.3178834197        0.2761334340       -0.1292651830
 C         -5.4098190356        1.6443674114       -0.2851986367
 C         -4.4070572763        2.5783876564       -0.5064093243
 C         -4.7785997423        3.9013808608       -0.6513258557
 C         -6.1137753640        4.2924701633       -0.5889290033
 C         -7.1186425073        3.3639073859       -0.3966607529
 C         -6.7702812262        2.0290114089       -0.2485705844
 C         -7.5293768961        0.8240388266       -0.0555244731
 C         -8.8855294180        0.5602873461        0.0755915746
 C         -9.2886630435       -0.7450364880        0.2822050922
 C         -8.3573807419       -1.7767232256        0.3747849884
 C         -7.0020860390       -1.5389996929        0.2462134941
 C         -6.5927531161       -0.2335846529        0.0116711343
 C         -3.0813328522       -0.0704236904        0.7314833246
 C         -1.9138231768       -0.8033138323        0.7650645423
 C          0.6950614191       -2.0933034405        0.0800388497
 C          1.9279258753       -2.7930011942        0.1512079218
 C          3.1763546803       -2.1170985780        0.1692323587
 C          4.4306872879       -2.8074672157        0.0979560972
 C          5.6060087189       -2.1459254850        0.0344283036
 C          5.6874337703       -0.7095528710        0.0360693692
 C          6.8630201172       -0.0077169128       -0.2520115150
 C          8.0724942100       -0.6711460264       -0.6201823294
 C          9.1902733234        0.0185796048       -0.9835175633
 C          9.1730254257        1.4191295105       -1.0099750569
 C          8.0286872024        2.0961293519       -0.6353949973
 C          6.8724420916        1.4338837087       -0.2341259312
 C          5.6964478111        2.1449227636        0.2251699453
 C          5.7112829389        3.5293885392        0.4395475450
 C          4.6025206491        4.2060787229        0.9090328197
 C          3.4466162434        3.5070416683        1.2033842963
 C          3.4108750574        2.1369963460        1.0099409278
 C          4.5057423040        1.4372857239        0.5035055639
 C          4.4526918362       -0.0045664775        0.2889065601
 C          3.2717060328       -0.6950753007        0.2992265927
 C          1.8328213252       -4.2161791217        0.1936907918
 H          0.5857493824       -5.9348382203        0.1987236357
 H         -1.5188473509       -4.6512140555        0.0827097764
 H         -2.7203185281       -3.2219647429       -1.4481422008
 H         -4.7919647418       -1.9028683209       -1.5386227584
 H         -3.3713868413        2.2821030030       -0.5760341382
 H         -4.0165986954        4.6476301764       -0.8203634421
 H         -6.3632222885        5.3366364070       -0.7019985970
 H         -8.1544192089        3.6654262293       -0.3660584442
 H         -9.6063793656        1.3619882042        0.0219078451
 H        -10.3392809195       -0.9718793209        0.3845874643
 H         -8.7012380927       -2.7843741174        0.5549836755
 H         -6.2865504462       -2.3418124627        0.3390751633
 H         -3.1985095627        0.7994523360        1.3604461136
 H         -1.1142926455       -0.5007929530        1.4251310317
 H          0.6944880689       -1.0188215861       -0.0029327771
 H          4.4461362459       -3.8850945685        0.0788183114
 H          6.5170668921       -2.7198814621       -0.0185491826
 H          8.1017584096       -1.7481254167       -0.6287142513
 H         10.0894723413       -0.5105137834       -1.2634380193
 H         10.0499736075        1.9660753067       -1.3201115742
 H          8.0485668613        3.1737082882       -0.6709658339
 H          6.6077656784        4.0966739701        0.2498551858
 H          4.6476612112        5.2748764603        1.0575858640
 H          2.5785596609        4.0200613361        1.5899441845
 H          2.5100718365        1.6090029535        1.2801117985
 H          2.3574238280       -0.1440381877        0.4287104446
 H          2.7261395196       -4.8130974965        0.2692184128
