  67
       -110.94083637
 C          5.5797295209       -2.1619239583        0.5504652052
 C          4.4272874253       -1.8821588285       -0.4186142880
 O          4.9840779115       -0.9349380625       -1.3682940957
 C          4.1264631218       -0.3375977022       -2.2586698264
 O          3.5504085598        0.8534630025       -1.7176486626
 C          2.2208803723        0.9310932244       -1.5926235337
 O          1.4591953721        0.0720839486       -1.9739729583
 C          1.7845464780        2.1767539840       -0.9249774376
 C          0.4235569462        2.3560030501       -0.6839695409
 C         -0.0202190134        3.4885299695       -0.0307260863
 C          0.8891782304        4.4496548027        0.3824307172
 C          2.2421514427        4.2785741354        0.1381675044
 C          2.6945870719        3.1461529046       -0.5127110992
 C          4.0583791903       -3.1951072115       -1.1604057858
 C          2.6087975677       -3.5233823015       -1.3211314778
 C          1.6248815128       -2.8747986091       -0.6972223196
 C          1.9601427128       -1.7400079500        0.1129933516
 C          3.2466189720       -1.2839000714        0.2834835763
 C          3.1756379935       -0.1318289742        1.1216114134
 C          4.1028535413        0.8104951843        1.5695250578
 C          3.6626277484        1.8561683339        2.3478106788
 C          2.3144546841        1.9972128784        2.6813363507
 C          1.3715762008        1.0949955787        2.2379822527
 C          1.8087174946        0.0281737911        1.4647027989
 N          1.0836923294       -0.9661013135        0.8448223327
 C         -0.3102600020       -1.0669449352        0.8413396837
 C         -0.9996612880       -1.1447294714       -0.3702504354
 C         -2.3783371618       -1.2318859216       -0.3693000017
 C         -3.0620098689       -1.2265224326        0.8331892577
 S         -4.8589307872       -1.2947430431        0.7968512769
 O         -5.2807603063       -2.5567094132        0.2377663608
 O         -5.3618150567       -0.9550816055        2.1066585691
 C         -5.2720455076        0.0202672186       -0.3625196008
 C         -6.0170895437       -0.2579402482       -1.4905910848
 C         -6.2979796951        0.7635867103       -2.3839598041
 C         -5.8260125617        2.0429940793       -2.1386955910
 C         -5.0767166833        2.3100364620       -1.0026232183
 C         -4.7958517922        1.2922711810       -0.1070068716
 C         -2.3922886453       -1.1379797811        2.0377988071
 C         -1.0111751753       -1.0669428965        2.0462935551
 H          5.9353820619       -1.2382587895        0.9932474432
 H          6.4023820020       -2.6206703439        0.0081248384
 H          5.2425448775       -2.8272594997        1.3408049313
 H          4.7350514561       -0.0183842479       -3.1120059668
 H          3.3108693550       -0.9992996831       -2.5877079923
 H         -0.2694083510        1.5949090722       -1.0126105351
 H         -1.0751451059        3.6229327741        0.1579850325
 H          0.5419405447        5.3346809518        0.8952117563
 H          2.9471853003        5.0306953611        0.4590659278
 H          3.7456853895        3.0030823731       -0.7074006136
 H          4.5172137791       -4.0345563259       -0.6263860980
 H          4.5369763440       -3.1665761940       -2.1450086894
 H          2.3938331718       -4.3707190397       -1.9560709403
 H          0.5931127571       -3.1720772128       -0.7972840351
 H          5.1406731309        0.7377201896        1.2849405979
 H          4.3688863508        2.5929048859        2.7008099015
 H          2.0027867350        2.8363090142        3.2849100754
 H          0.3248358271        1.2266962604        2.4678114668
 H         -0.4461188261       -1.1006056736       -1.2959424252
 H         -2.9311583140       -1.2957463479       -1.2941842174
 H         -6.3612014278       -1.2681992344       -1.6480401993
 H         -6.8814723222        0.5599353031       -3.2689382327
 H         -6.0427342621        2.8378143342       -2.8365967118
 H         -4.7122180718        3.3090536110       -0.8173748178
 H         -4.2193315684        1.4703473702        0.7880512954
 H         -2.9660310353       -1.1309809470        2.9512065895
 H         -0.4703943922       -1.0221582654        2.9792802558
