67
 energy: -110.900366539112 gnorm: 0.000055751782 xtb: 6.7.1 (edcfbbe)
C            5.11668332736820       -2.39165354894678        0.70923943295781
C            4.50437892755787       -1.42039484888412       -0.32069512106122
O            5.53165997338335       -0.43275161644774       -0.50713806567432
C            5.37390535083239        0.56404850345554       -1.46074675960437
O            4.32153684898763        1.45715103295506       -1.17199858388352
C            3.09179949805588        1.15141586747182       -1.69233518033719
O            2.95255284791602        0.32503775222324       -2.58772196356129
C            2.01068756943514        1.94439088398587       -1.12265305777198
C            0.69196596743935        1.62064729040877       -1.46391890490389
C           -0.36215907770304        2.32444782489531       -0.92237796679813
C           -0.11706962293593        3.37463069809888       -0.04757377581720
C            1.18810404110153        3.71691331262975        0.27790218305188
C            2.24964211639693        3.01016917135981       -0.24862541942914
C            4.17928729752572       -2.20975374985810       -1.61238750347270
C            3.00122687991081       -3.09145959439254       -1.46614857687565
C            1.88377251293849       -2.67052495309404       -0.76411365900058
C            1.97216414049770       -1.51126457184561       -0.01030582595817
C            3.24290284545439       -0.86192299126430        0.24556759898109
C            3.01664616658209        0.11231476700258        1.21636851239640
C            3.86733913678707        1.01717376484559        1.87906525388582
C            3.31463294704203        1.89121305481070        2.79266558070178
C            1.94610616268351        1.90578175320502        3.03322392066042
C            1.07741000168199        1.01801473597766        2.38623878621694
C            1.61654078334895        0.10970730152357        1.50935454791935
N            1.00620063995412       -0.88965859730449        0.74937580170964
C           -0.35989072646792       -1.13817871976844        0.67952612744628
C           -0.96788524544773       -1.37114883892540       -0.56191294185747
C           -2.32860633826493       -1.56763430793441       -0.64067002478601
C           -3.09394319314754       -1.54901652493447        0.51622520526889
S           -4.86927152045709       -1.66277359567240        0.37013964637053
O           -5.20914464829804       -2.65201261891561       -0.63278490409654
O           -5.44129106659501       -1.84408568381240        1.68930935123524
C           -5.31554828032924       -0.03625645743731       -0.24530735806353
C           -5.26671566725004        1.03539425595976        0.62676352264153
C           -5.54396800394473        2.30589418845500        0.15042388428081
C           -5.85794349926578        2.48883502547374       -1.18838688735867
C           -5.90306691366431        1.40625967160488       -2.05331937137779
C           -5.62619436894029        0.13325311282246       -1.58070881361230
C           -2.50495233741759       -1.35054153274687        1.75455791444648
C           -1.14292730812148       -1.15385918212862        1.84151855325072
H            4.42873497874940       -3.21050009353949        0.89514063921427
H            5.31444268724479       -1.85960570365101        1.63512158655538
H            6.05358053838883       -2.77748771921040        0.31785874829406
H            6.29564616630774        1.15182375860755       -1.41217814387289
H            5.23630485092420        0.15769134479357       -2.47518605486163
H            0.52758971223385        0.80992013908182       -2.15744864769548
H           -1.37701320968614        2.05976755198327       -1.18087606627482
H           -0.94224842549132        3.92833270920439        0.37408467558232
H            1.37675230435028        4.54177398303503        0.94866304020877
H            3.26633462880889        3.26945259258423       -0.00079664180822
H            5.06104717997775       -2.75673113899508       -1.94644025243625
H            3.91977351118815       -1.46642829777140       -2.38391097862214
H            2.98784730857039       -4.02666650952608       -1.99958763698321
H            0.97369934140283       -3.24999220040631       -0.77944164770454
H            4.92327074736805        1.01396238209234        1.66129962119731
H            3.95202378309398        2.58559845550657        3.31921032790908
H            1.53479871432258        2.61740092179174        3.73207397319939
H            0.01774335880503        1.06997174237882        2.57375075162820
H           -0.36673843021774       -1.36338452885642       -1.45691733191501
H           -2.81601545833975       -1.73765518530810       -1.58744791307981
H           -5.02830562257001        0.85669336494203        1.66345804349076
H           -5.51434527618261        3.15086917556631        0.82128940565106
H           -6.07214460093516        3.48010979720148       -1.55870909586098
H           -6.15205106046216        1.55136744979957       -3.09353996739146
H           -5.65846105708011       -0.73447170086600       -2.22138997624439
H           -3.12943970625594       -1.37329985987616        2.63396963631095
H           -0.67332315619978       -1.04135342617808        2.80534840044682
