67
 energy: -110.900407439375 gnorm: 0.000089137398 xtb: 6.7.1 (edcfbbe)
C            5.01847601011390       -2.59340313313020        0.59614734644452
C            4.44983963130684       -1.60749030588790       -0.44497217919761
O            5.53277775562163       -0.68981187222481       -0.66813500728111
C            5.42088933320412        0.29403822999267       -1.64141717982724
O            4.43461805067993        1.25903149608209       -1.35230486771274
C            3.17495568183450        1.01838204831566       -1.83434830017955
O            2.96160134349925        0.18494071857724       -2.70843497713172
C            2.16170813055227        1.88986501252058       -1.25490749457670
C            0.81517106104889        1.63558887836811       -1.54123258061346
C           -0.17523240813948        2.41991726353203       -0.99007725301582
C            0.16233880706300        3.48104705181235       -0.16041129328180
C            1.49596297658007        3.75260834475052        0.11175464622764
C            2.49412535961953        2.96560457333792       -0.42465880323316
C            4.05642881348197       -2.40097623991628       -1.71494298441905
C            2.83499351469485       -3.21318815221529       -1.52908380223056
C            1.75763102046080       -2.71815440167510       -0.81276565319257
C            1.92461977672527       -1.55070480032590       -0.08552618443404
C            3.23307612790793       -0.96363127497789        0.12926923679676
C            3.07936934571203        0.04097279971217        1.08339185091721
C            3.98932143256827        0.91437807751249        1.70859344208309
C            3.50197169755890        1.83435791892095        2.61430408602388
C            2.14169484298649        1.92441773057137        2.88372954226172
C            1.21507317613746        1.06828346336775        2.27581691609776
C            1.68806628018387        0.11615895580387        1.40734784910747
N            1.01015889933506       -0.86593419763375        0.68378625715716
C           -0.36597575648948       -1.06409133531868        0.67116452456171
C           -1.03144382179588       -1.29562247064813       -0.54073559543447
C           -2.39904917921892       -1.45812562914561       -0.56017943640752
C           -3.11379797795543       -1.40528097542612        0.62763216606747
S           -4.89505493457821       -1.50700251978884        0.56131014645670
O           -5.28563635442788       -2.54317238119613       -0.37337107785204
O           -5.40946942769085       -1.61844465675671        1.91190745113586
C           -5.37108439388557        0.08751793677869       -0.11505303234337
C           -5.92912600089066        0.16531529811671       -1.37588548739243
C           -6.24739149254951        1.40921516614735       -1.89798488474930
C           -5.99699405931820        2.55345809588888       -1.15664649904790
C           -5.43404628434591        2.46230124563582        0.10805696121632
C           -5.11585299513850        1.22128147558538        0.63392473686637
C           -2.46931755238382       -1.20051434087381        1.83690380867230
C           -1.10044689612498       -1.03648741248249        1.86425256654962
H            5.26490895390877       -2.05515040827889        1.50665747724240
H            5.92278450900917       -3.04492724420497        0.19840746197925
H            4.28466965084620       -3.36384127382224        0.81123887128594
H            6.37923612104031        0.82188718206476       -1.62366087425507
H            5.23680573043728       -0.12428200230804       -2.64352123259118
H            0.57831814775509        0.81354875364398       -2.19973219438438
H           -1.21233450706487        2.20936513278419       -1.20654917313249
H           -0.61312263275314        4.09790122916006        0.26801195493101
H            1.75727310578781        4.58506348145827        0.74794820071737
H            3.53252877053861        3.16999697734766       -0.21929450550480
H            4.89988612139952       -3.00197490160668       -2.05495503668847
H            3.82292741893484       -1.65808741175262       -2.49521768304266
H            2.75962218518575       -4.15634631289605       -2.04289417750477
H            0.81755946601627       -3.24746608846093       -0.79710462407935
H            5.03881797985876        0.85242688149386        1.46960801598335
H            4.18549737471025        2.50597885326459        3.11172065245090
H            1.78310296812636        2.67084590197500        3.57523993339130
H            0.16373835813773        1.17614038894003        2.48547053949740
H           -0.46771369298963       -1.31567963226458       -1.45972637658628
H           -2.93001673441110       -1.62912524624202       -1.48317292070117
H           -6.11005689644614       -0.74859730727340       -1.92055990674522
H           -6.68802895729097        1.48287906471627       -2.88057368333272
H           -6.24349242139628        3.52185161532343       -1.56545381483536
H           -5.24343099180559        3.35585434922864        0.68262641082347
H           -4.68491529986196        1.11616324813026        1.61724365601715
H           -3.05756831904027       -1.19359837632250        2.74134537986825
H           -0.58844638084020       -0.91889193573257        2.80567420456631
