  53
  -88.9718212989000       0.386067198488472      !
 C         -6.3832609251        3.8732906085       -0.4191773358
 C         -7.3122027825        2.8656839793       -0.1653300184
 C         -6.9196358976        1.5545695933        0.0314595021
 C         -5.5656649924        1.2860692182       -0.0344460231
 C         -4.6082576734        2.3061024914       -0.2913288226
 C         -5.0286223435        3.6141049506       -0.4857971613
 N         -3.3289012921        1.7872921070       -0.3069259793
 C         -3.4989068488        0.5167299796       -0.0732304406
 N         -2.6936241032       -0.5855306833        0.0466620821
 C         -1.3111596519       -0.5860529347       -0.0760373869
 C         -0.6260454468        0.6058361230       -0.3327196670
 C          0.7449473150        0.5486734551       -0.4534530364
 C          1.4106662612       -0.6740835168       -0.3202524755
 C          2.8692748598       -0.7767780684       -0.4423121053
 C          3.4409613850       -1.8673828136       -1.1114675108
 C          4.8080369920       -2.0053854359       -1.2533268058
 C          5.6097058862       -1.0221929570       -0.7009270275
 O          6.9687049318       -0.9716243400       -0.7262098366
 C          7.3199826685        0.1649290723       -0.0626813316
 C          8.6058185474        0.6240931120        0.1579270208
 C          8.7436907743        1.8090474115        0.8590683769
 C          7.6357675995        2.5122010749        1.3251046612
 C          6.3521155096        2.0530331479        1.1043531601
 C          6.1896696270        0.8663018940        0.4023521480
 C          5.0591510320        0.0827084383       -0.0207398132
 C          3.6847452837        0.2067159552        0.1054931722
 C          0.6193068666       -1.7892773751       -0.0584988573
 N         -0.6940284473       -1.7528153931        0.0605271667
 C         -3.5336551565       -1.6750874510        0.3013020092
 C         -3.2501135117       -3.0132087200        0.5034110244
 C         -4.3158213863       -3.8691463527        0.7351809057
 C         -5.6269770069       -3.4131950505        0.7668500971
 C         -5.9249816353       -2.0748174334        0.5672892845
 C         -4.8687748899       -1.2156421580        0.3354897761
 N         -4.8170037895        0.1406434161        0.1019261691
 H         -6.7363944267        4.8831086932       -0.5674284462
 H         -8.3617299647        3.1146625535       -0.1213749891
 H         -7.6406902495        0.7754946178        0.2268982256
 H         -4.3110698226        4.3939284227       -0.6827069272
 H         -1.1756174083        1.5270755212       -0.4352119023
 H          1.3049833914        1.4460642578       -0.6719732583
 H          2.7900458072       -2.6099965918       -1.5474427173
 H          5.2399728179       -2.8437672272       -1.7757703652
 H          9.4598291750        0.0759237522       -0.2060667413
 H          9.7329890621        2.1966650130        1.0491026224
 H          7.7870132931        3.4325602103        1.8688615978
 H          5.4939257714        2.5983676546        1.4659648177
 H          3.2587669314        1.0414691305        0.6405796085
 H          1.0631867974       -2.7661044631        0.0826561351
 H         -2.2329812595       -3.3630936792        0.4779648709
 H         -4.1185587469       -4.9180711563        0.8947620198
 H         -6.4296073055       -4.1108289459        0.9496036777
 H         -6.9411501270       -1.7148998955        0.5904750649
  53
  -88.9716702329000       0.329031727319368      !
 C         -7.1752296882        2.9196675332       -1.4639956333
 C         -7.8702567915        1.8965532803       -0.8216435551
 C         -7.2094925917        0.8361966234       -0.2293031297
 C         -5.8295548771        0.8345948121       -0.3018663697
 C         -5.1091526737        1.8735143758       -0.9537493916
 C         -5.7964402146        2.9266514299       -1.5402658213
 N         -3.7492147860        1.6429143981       -0.8919751457
 C         -3.6473315587        0.5206234086       -0.2380472745
 N         -2.6280847174       -0.2962603162        0.1760069009
 C         -1.2779645421       -0.0771473213       -0.0587119152
 C         -0.8518823148        1.0952602653       -0.6907168533
 C          0.4994594612        1.2612774487       -0.9011483576
 C          1.4004254659        0.2718645959       -0.4934709156
 C          2.8458128457        0.3900097299       -0.7145679198
 C          3.3264311351        0.9705172294       -1.8965432367
 C          4.6769763326        1.0823563735       -2.1635045735
 C          5.5578503259        0.5957132475       -1.2141027508
 O          6.9160338697        0.5993062468       -1.2863940890
 C          7.3601087056        0.0127903118       -0.1397557023
 C          8.6790489109       -0.2085762036        0.2132454991
 C          8.9142180376       -0.8287426252        1.4276486936
 C          7.8685780638       -1.2143235387        2.2625320660
 C          6.5518114653       -0.9927262877        1.9093810641
 C          6.2919594632       -0.3728339986        0.6946010285
 C          5.1005641690        0.0112768822       -0.0157903556
 C          3.7415603864       -0.0899661220        0.2345810694
 C          0.8530119027       -0.8505765035        0.1234175209
 N         -0.4365731715       -1.0231343395        0.3387709913
 C         -3.2190527889       -1.3763523846        0.8407962591
 C         -2.6593266442       -2.4805219942        1.4566496212
 C         -3.5196863495       -3.3939028028        2.0464802927
 C         -4.8970827472       -3.2193562848        2.0274971158
 C         -5.4710167170       -2.1169985717        1.4148209733
 C         -4.6205654809       -1.2021361157        0.8253188414
 N         -4.8560977005       -0.0244129925        0.1514172005
 H         -7.7337765290        3.7275932776       -1.9130331916
 H         -8.9487029551        1.9325694847       -0.7862871485
 H         -7.7492229574        0.0442300256        0.2665196137
 H         -5.2600276035        3.7186639377       -2.0371166459
 H         -1.5765875567        1.8331643065       -0.9931209323
 H          0.8635510455        2.1654836933       -1.3662657260
 H          2.6179524046        1.3193134910       -2.6324787885
 H          5.0369319544        1.5251434184       -3.0782384344
 H          9.4844048348        0.0913756399       -0.4376506170
 H          9.9318923576       -1.0181912132        1.7341360819
 H          8.0953088178       -1.6959427242        3.2018545094
 H          5.7418246567       -1.2918127383        2.5567566814
 H          3.3885564836       -0.5190132067        1.1595633789
 H          1.4812103343       -1.6702734777        0.4466572196
 H         -1.5917778635       -2.6140712379        1.4673030914
 H         -3.1052929656       -4.2635826524        2.5329487582
 H         -5.5339251640       -3.9527140058        2.4979274051
 H         -6.5396659074       -1.9755343166        1.3975605218
  53
  -88.9715341406000       0.284901074192159      !
 C         -7.1296871233        2.9932204029       -1.4089516833
 C         -7.8353848821        1.9963472324       -0.7374956523
 C         -7.1891677029        0.9212278771       -0.1557859519
 C         -5.8125107143        0.8778124580       -0.2685856532
 C         -5.0813965611        1.8897776048       -0.9503080813
 C         -5.7541133918        2.9580950303       -1.5260943581
 N         -3.7274066156        1.6211117430       -0.9235744935
 C         -3.6388982972        0.5030941501       -0.2603163694
 N         -2.6310428749       -0.3340850521        0.1410450767
 C         -1.2801636468       -0.1424224784       -0.1131308300
 C         -0.8477729570        0.9891601527       -0.8120072958
 C          0.5039767879        1.1329521745       -1.0352432283
 C          1.3987090337        0.1639658791       -0.5698390935
 C          2.8455692538        0.2715107871       -0.7878036666
 C          3.3331391260        0.7532191270       -2.0102112199
 C          4.6855651669        0.8625034508       -2.2687793699
 C          5.5597414538        0.4802531854       -1.2668292009
 O          6.9186089237        0.5099226533       -1.3178690793
 C          7.3553863728        0.0448867401       -0.1142582820
 C          8.6725094846       -0.1026394172        0.2815368061
 C          8.9000494607       -0.5956174343        1.5542297481
 C          7.8487821961       -0.9301367210        2.4038940011
 C          6.5338451094       -0.7829539951        2.0077754329
 C          6.2816250121       -0.2902243201        0.7345437369
 C          5.0946564908       -0.0042149329       -0.0276259894
 C          3.7337974423       -0.1104467660        0.2111429401
 C          0.8459940873       -0.9189326548        0.1090228367
 N         -0.4448481403       -1.0718290752        0.3332761570
 C         -3.2333733514       -1.3898417964        0.8341936350
 C         -2.6879282209       -2.5023681800        1.4478732434
 C         -3.5576653872       -3.3886912239        2.0648497044
 C         -4.9303671171       -3.1797769734        2.0742965391
 C         -5.4899265110       -2.0685687206        1.4642300605
 C         -4.6301251152       -1.1804938790        0.8479719832
 N         -4.8514847124       -0.0047877811        0.1656813663
 H         -7.6769534572        3.8143153427       -1.8478513141
 H         -8.9107384501        2.0653217571       -0.6700213294
 H         -7.7373875488        0.1503402833        0.3635483533
 H         -5.2091131869        3.7295622695       -2.0454717867
 H         -1.5678969041        1.7155860133       -1.1510116930
 H          0.8744554461        2.0058503350       -1.5521874270
 H          2.6288287102        1.0258721142       -2.7816282635
 H          5.0520239980        1.2278814344       -3.2145542888
 H          9.4823112506        0.1578200380       -0.3807583313
 H          9.9160908094       -0.7237470618        1.8956473297
 H          8.0696752361       -1.3114613693        3.3894790848
 H          5.7194445353       -1.0423883346        2.6665395784
 H          3.3724999522       -0.4632917436        1.1648456330
 H          1.4709871414       -1.7211007398        0.4793420612
 H         -1.6239899442       -2.6619753482        1.4371751785
 H         -3.1544922769       -4.2641988072        2.5502862865
 H         -5.5747101675       -3.8928864095        2.5648862623
 H         -6.5549192443       -1.9008326796        1.4683001820
