  53
  -89.2738880200000       0.348422611599770      !
 C         -7.2680415171        2.9113138500        0.6904895907
 C         -7.9209319629        1.6842610154        0.5870775345
 C         -7.2217678783        0.5097128600        0.3785813475
 C         -5.8468088942        0.6048406528        0.2774298245
 C         -5.1693176012        1.8511620166        0.3824795183
 C         -5.8945751639        3.0155760524        0.5910971433
 N         -3.8054519470        1.6824600546        0.2498336449
 C         -3.6602368831        0.3997952337        0.0726559316
 N         -2.6125985690       -0.4611149097       -0.1248795517
 C         -1.2753694310       -0.0954012582       -0.1903500040
 C         -0.9013893524        1.2422835109       -0.0272315398
 C          0.4391883962        1.5513691741       -0.0983311378
 C          1.3802448832        0.5427833458       -0.3290876251
 C          2.8173808537        0.8243338679       -0.4176791860
 C          3.2625957511        1.9829534077       -1.0683957052
 C          4.6045644364        2.2871279378       -1.1886232002
 C          5.5117287341        1.4016626610       -0.6343599345
 O          6.8671573641        1.5146372314       -0.6418514276
 C          7.3443861982        0.4202058002        0.0140329939
 C          8.6734654834        0.1146182167        0.2451076417
 C          8.9440542057       -1.0536073687        0.9354552466
 C          7.9229014529       -1.8891042338        1.3806376828
 C          6.5960137278       -1.5834900469        1.1491184600
 C          6.3007685345       -0.4161762472        0.4579417598
 C          5.0893991105        0.2313835351        0.0280013238
 C          3.7385160191       -0.0584317409        0.1345617914
 C          0.8837484020       -0.7495435069       -0.4787509707
 N         -0.3955995780       -1.0637741775       -0.4119052130
 C         -3.1594764423       -1.7432611708       -0.2469647141
 C         -2.5589052751       -2.9712450269       -0.4548058281
 C         -3.3810861602       -4.0850134613       -0.5336074576
 C         -4.7605967200       -3.9863198977       -0.4100977745
 C         -5.3751489453       -2.7622190402       -0.2003973747
 C         -4.5629505580       -1.6479540288       -0.1200441147
 N         -4.8435367842       -0.3140449308        0.0768397939
 H         -7.8555931171        3.8027081095        0.8533687411
 H         -8.9967371505        1.6501953040        0.6718023312
 H         -7.7291473836       -0.4393389749        0.2986597956
 H         -5.3904360481        3.9649700560        0.6713131999
 H         -1.6560098476        1.9901225744        0.1529951358
 H          0.7649858978        2.5710204799        0.0452102912
 H          2.5337783382        2.6464444870       -1.5089429044
 H          4.9385547245        3.1773737669       -1.6967532961
 H          9.4598145018        0.7652313263       -0.1021828417
 H          9.9705595632       -1.3230192989        1.1330081553
 H          8.1770711820       -2.7915362493        1.9159827920
 H          5.8049639151       -2.2312989537        1.4942394316
 H          3.4093311096       -0.9436074166        0.6567548587
 H          1.5469239733       -1.5801110717       -0.6826675329
 H         -1.4898445506       -3.0438272650       -0.5517312597
 H         -2.9344597810       -5.0540501966       -0.6954822348
 H         -5.3668388688       -4.8764389952       -0.4774755178
 H         -6.4457096048       -2.6792034938       -0.1035998501
  53
  -89.2738672700000       0.340855488874555      !
 C         -6.5389286025        3.0139168676        2.0206008168
 C         -7.4221860028        2.0291249786        1.5816431260
 C         -6.9742000932        0.8992340830        0.9224686448
 C         -5.6120825472        0.7883754428        0.7174824144
 C         -4.7009377313        1.7859793359        1.1621025023
 C         -5.1765277189        2.9108070033        1.8208677916
 N         -3.4024734099        1.4450886065        0.8396987910
 C         -3.5174440146        0.2998650334        0.2288892124
 N         -2.6668752888       -0.6013765039       -0.3560292611
 C         -1.2880042247       -0.4663314722       -0.4381317547
 C         -0.6557204010        0.6537527122        0.1109541939
 C          0.7139789801        0.7428441735       -0.0050267823
 C          1.4301576091       -0.2667592930       -0.6560626714
 C          2.8891743472       -0.2086643833       -0.8005580266
 C          3.4912371936       -0.6191901342       -1.9976386783
 C          4.8598451078       -0.5802443238       -2.1805596984
 C          5.6319142336       -0.1222518847       -1.1276408163
 O          6.9871221464       -0.0089952661       -1.1019647033
 C          7.3052019687        0.4803208497        0.1288134042
 C          8.5756408705        0.7563959601        0.6006620009
 C          8.6792955383        1.2509733303        1.8888287521
 C          7.5531438121        1.4625359599        2.6801139075
 C          6.2848840871        1.1866402106        2.2081733353
 C          6.1567341319        0.6901616005        0.9179750042
 C          5.0505992818        0.2934693669        0.0871929809
 C          3.6749342776        0.2530151023        0.2490973993
 C          0.6887754141       -1.3346352145       -1.1544755994
 N         -0.6225306541       -1.4363701645       -1.0521393260
 C         -3.4580339894       -1.6468742265       -0.8445269944
 C         -3.1177953399       -2.8058266603       -1.5174901185
 C         -4.1441287580       -3.6642408675       -1.8805941622
 C         -5.4715631400       -3.3838165823       -1.5851220468
 C         -5.8262136441       -2.2268688272       -0.9101547629
 C         -4.8095014965       -1.3663129544       -0.5451535935
 N         -4.8160578357       -0.1592640753        0.1179699106
 H         -6.9346351376        3.8799236307        2.5303682640
 H         -8.4797851418        2.1514065606        1.7604194025
 H         -7.6599443290        0.1381995279        0.5823881551
 H         -4.4943390555        3.6731931676        2.1602284961
 H         -1.2433027354        1.4136820064        0.5992886041
 H          1.2337259885        1.6037962467        0.3890878228
 H          2.8623738510       -0.9553770616       -2.8080397765
 H          5.3149898738       -0.8911391285       -3.1071596773
 H          9.4438589931        0.5914723670       -0.0168432686
 H          9.6557593800        1.4775573368        2.2891406002
 H          7.6777547138        1.8490737749        3.6804480741
 H          5.4125593225        1.3506553261        2.8220062840
 H          3.2261206175        0.5534534596        1.1833837615
 H          1.1736970181       -2.1665799236       -1.6483018073
 H         -2.0882030602       -3.0198351375       -1.7450096103
 H         -3.9023770196       -4.5745039376       -2.4074709643
 H         -6.2422791719       -4.0768206772       -1.8852044388
 H         -6.8552840816       -2.0035750347       -0.6781406792
  53
  -89.2737798000000       0.310721899525675      !
 C         -7.3111574570        2.9051156079        0.5088641671
 C         -7.9531538229        1.6725630927        0.4035237433
 C         -7.2400705107        0.4980893789        0.2487450868
 C         -5.8626948509        0.5992066687        0.2028357083
 C         -5.1961495882        1.8511902003        0.3102569268
 C         -5.9353381150        3.0152696927        0.4651200862
 N         -3.8272036264        1.6878738723        0.2345060442
 C         -3.6688880002        0.4031171146        0.0866035297
 N         -2.6105837845       -0.4545688975       -0.0616222956
 C         -1.2747175375       -0.0811081476       -0.1053984677
 C         -0.9071790001        1.2531434467        0.0951107894
 C          0.4324626041        1.5696514431        0.0389789881
 C          1.3793682807        0.5727693014       -0.2188466638
 C          2.8146837278        0.8614008980       -0.3113031636
 C          3.2504375912        2.0540656073       -0.9052038359
 C          4.5904290139        2.3610738639       -1.0390604660
 C          5.5069383626        1.4409151080       -0.5621508070
 O          6.8623783130        1.5450944759       -0.6049373243
 C          7.3500364559        0.4082834531       -0.0341192921
 C          8.6828896326        0.0761722258        0.1284254384
 C          8.9644026606       -1.1370569662        0.7313444795
 C          7.9501530758       -1.9900926666        1.1587713327
 C          6.6194595256       -1.6576143744        0.9962656181
 C          6.3132914305       -0.4454328943        0.3926455350
 C          5.0949446519        0.2363202514        0.0426975249
 C          3.7457818204       -0.0526396629        0.1695403388
 C          0.8883493784       -0.7176545699       -0.4026771400
 N         -0.3892452610       -1.0397031590       -0.3459353456
 C         -3.1459442338       -1.7416781805       -0.1821457845
 C         -2.5316315530       -2.9695852785       -0.3453123757
 C         -3.3441242482       -4.0899931771       -0.4285307992
 C         -4.7275065097       -3.9978751659       -0.3522715365
 C         -5.3558840125       -2.7739267387       -0.1877821859
 C         -4.5533435057       -1.6529540009       -0.1035074091
 N         -4.8477507200       -0.3176157686        0.0603425236
 H         -7.9094742993        3.7962677838        0.6281036995
 H         -9.0313684942        1.6341267836        0.4431361507
 H         -7.7387747445       -0.4552299522        0.1660620003
 H         -5.4399687665        3.9690997935        0.5469760035
 H         -1.6660659975        1.9933811972        0.2882089162
 H          0.7517699868        2.5868314627        0.2118181737
 H          2.5154946951        2.7435040676       -1.2921607185
 H          4.9159335394        3.2783947454       -1.5026720031
 H          9.4638084580        0.7402744275       -0.2052946245
 H          9.9941691038       -1.4286529788        0.8729041705
 H          8.2127641892       -2.9281355318        1.6243908270
 H          5.8338164523       -2.3191137788        1.3276415742
 H          3.4268583436       -0.9648146257        0.6496549944
 H          1.5544598640       -1.5398994718       -0.6290185723
 H         -1.4595855290       -3.0371642510       -0.4066287761
 H         -2.8866861811       -5.0591029425       -0.5561754726
 H         -5.3260245215       -4.8932667665       -0.4210940533
 H         -6.4294639297       -2.6961083078       -0.1270236135
