  53
        -89.27388802
 C         -7.2680415171        2.9113138500        0.6904895907
 C         -7.9209319629        1.6842610154        0.5870775345
 C         -7.2217678783        0.5097128600        0.3785813475
 C         -5.8468088942        0.6048406528        0.2774298245
 C         -5.1693176012        1.8511620166        0.3824795183
 C         -5.8945751639        3.0155760524        0.5910971433
 N         -3.8054519470        1.6824600546        0.2498336449
 C         -3.6602368831        0.3997952337        0.0726559316
 N         -2.6125985690       -0.4611149097       -0.1248795517
 C         -1.2753694310       -0.0954012582       -0.1903500040
 C         -0.9013893524        1.2422835109       -0.0272315398
 C          0.4391883962        1.5513691741       -0.0983311378
 C          1.3802448832        0.5427833458       -0.3290876251
 C          2.8173808537        0.8243338679       -0.4176791860
 C          3.2625957511        1.9829534077       -1.0683957052
 C          4.6045644364        2.2871279378       -1.1886232002
 C          5.5117287341        1.4016626610       -0.6343599345
 O          6.8671573641        1.5146372314       -0.6418514276
 C          7.3443861982        0.4202058002        0.0140329939
 C          8.6734654834        0.1146182167        0.2451076417
 C          8.9440542057       -1.0536073687        0.9354552466
 C          7.9229014529       -1.8891042338        1.3806376828
 C          6.5960137278       -1.5834900469        1.1491184600
 C          6.3007685345       -0.4161762472        0.4579417598
 C          5.0893991105        0.2313835351        0.0280013238
 C          3.7385160191       -0.0584317409        0.1345617914
 C          0.8837484020       -0.7495435069       -0.4787509707
 N         -0.3955995780       -1.0637741775       -0.4119052130
 C         -3.1594764423       -1.7432611708       -0.2469647141
 C         -2.5589052751       -2.9712450269       -0.4548058281
 C         -3.3810861602       -4.0850134613       -0.5336074576
 C         -4.7605967200       -3.9863198977       -0.4100977745
 C         -5.3751489453       -2.7622190402       -0.2003973747
 C         -4.5629505580       -1.6479540288       -0.1200441147
 N         -4.8435367842       -0.3140449308        0.0768397939
 H         -7.8555931171        3.8027081095        0.8533687411
 H         -8.9967371505        1.6501953040        0.6718023312
 H         -7.7291473836       -0.4393389749        0.2986597956
 H         -5.3904360481        3.9649700560        0.6713131999
 H         -1.6560098476        1.9901225744        0.1529951358
 H          0.7649858978        2.5710204799        0.0452102912
 H          2.5337783382        2.6464444870       -1.5089429044
 H          4.9385547245        3.1773737669       -1.6967532961
 H          9.4598145018        0.7652313263       -0.1021828417
 H          9.9705595632       -1.3230192989        1.1330081553
 H          8.1770711820       -2.7915362493        1.9159827920
 H          5.8049639151       -2.2312989537        1.4942394316
 H          3.4093311096       -0.9436074166        0.6567548587
 H          1.5469239733       -1.5801110717       -0.6826675329
 H         -1.4898445506       -3.0438272650       -0.5517312597
 H         -2.9344597810       -5.0540501966       -0.6954822348
 H         -5.3668388688       -4.8764389952       -0.4774755178
 H         -6.4457096048       -2.6792034938       -0.1035998501
