  45
  -74.8876574900000       0.207047161625994      !
 C         -4.7751737963        3.5120880297        0.4781820837
 C         -3.3962316830        3.5605224930        0.4948119849
 C         -2.6513768589        2.4009414107        0.3422616884
 C         -3.2745782131        1.1730937313        0.1575743464
 C         -4.6751602707        1.1307702991        0.1758064627
 C         -5.4131908673        2.2899663907        0.3274802062
 O         -5.3790108309       -0.0419964493        0.0652430930
 C         -4.6591489359       -1.2018608052       -0.0747420101
 C         -5.3811091634       -2.3745040389       -0.1973204487
 C         -4.7272785656       -3.5846183874       -0.3750517692
 C         -3.3494782433       -3.6075694828       -0.4476511594
 C         -2.6205359962       -2.4345426651       -0.3239676829
 C         -3.2585103925       -1.2185689527       -0.1129498196
 N         -2.5550484239       -0.0162820195        0.0079501910
 C         -1.1474067688       -0.0058161017       -0.0074349297
 C         -0.4290530662       -0.6859954916        0.9759031389
 C          0.9476907501       -0.6757236189        0.9617387196
 C          1.6407059429        0.0177780137       -0.0356388749
 C          3.0830392220        0.0129832518       -0.0229773724
 N          3.7981339506       -0.6223139216        0.8324961942
 C          5.1309219672       -0.4630915386        0.6281677700
 C          6.1493543515       -1.0302436921        1.3912872134
 C          7.4586436574       -0.7684294506        1.0520794073
 C          7.7729720285        0.0481603016       -0.0334568040
 C          6.7815366103        0.6208834136       -0.8057094649
 C          5.4635442939        0.3624016562       -0.4717340703
 S          4.0124685575        0.9266435219       -1.2368953185
 C          0.9177403383        0.6968203032       -1.0171643161
 C         -0.4605058532        0.6843937374       -1.0046469053
 H         -5.3592428337        4.4114193621        0.5931889864
 H         -2.8840489729        4.5005711377        0.6307581794
 H         -1.5745660910        2.4525147350        0.3773851764
 H         -6.4886345799        2.2124832759        0.3313074385
 H         -6.4570854162       -2.3171745175       -0.1564678752
 H         -5.2987633743       -4.4945735697       -0.4670777743
 H         -2.8257407266       -4.5377467843       -0.6059466872
 H         -1.5450214687       -2.4660154341       -0.4009653028
 H         -0.9635094335       -1.2132348923        1.7522971814
 H          1.5146548860       -1.1917384410        1.7199712772
 H          5.8931651730       -1.6594772890        2.2284438265
 H          8.2577546254       -1.2008838219        1.6353481915
 H          8.8080745467        0.2365823772       -0.2751043501
 H          7.0213878530        1.2527914389       -1.6467396904
 H          1.4445159859        1.2277576094       -1.7967777350
 H         -1.0173554009        1.2016949591       -1.7718533941
  45
  -74.8876507900000       0.205584408347371      !
 C         -4.7829595964        3.5495381753        0.1153700925
 C         -3.4040594641        3.6029162054        0.1273884914
 C         -2.6561601351        2.4373804716        0.0564900810
 C         -3.2766967360        1.1965535387       -0.0157360143
 C         -4.6766343599        1.1560832785       -0.0637400849
 C         -5.4176872580        2.3208774130        0.0096455996
 O         -5.3759777055       -0.0166599862       -0.2020244746
 C         -4.6518193875       -1.1789532524       -0.2924174474
 C         -5.3686637800       -2.3530900735       -0.4297691609
 C         -4.7107553603       -3.5725779316       -0.4908356322
 C         -3.3346881646       -3.6075863582       -0.3932731387
 C         -2.6107468224       -2.4326024215       -0.2584967207
 C         -3.2519794478       -1.2005015480       -0.2309008326
 N         -2.5536705537        0.0028431656       -0.0937951656
 C         -1.1466312424        0.0114392061       -0.0396766124
 C         -0.4906934055        0.4825610169        1.0961824990
 C          0.8865968681        0.4868522728        1.1502774711
 C          1.6390576218        0.0210445034        0.0712961314
 C          3.0811918272        0.0089863572        0.1029901355
 N          3.8247320991       -0.3959002936       -0.8613341629
 C          5.1499274389       -0.3095200864       -0.5777872561
 C          6.1941175337       -0.6724171220       -1.4258411713
 C          7.4908906180       -0.5252772548       -0.9842456075
 C          7.7674201692       -0.0238670127        0.2871501393
 C          6.7499650172        0.3444735953        1.1453887749
 C          5.4444840150        0.2009275613        0.7085610700
 S          3.9686616750        0.5713134944        1.5413534569
 C          0.9768498898       -0.4484043003       -1.0675570078
 C         -0.3990407515       -0.4529978831       -1.1217382833
 H         -5.3694581793        4.4526835898        0.1750161344
 H         -2.8944869209        4.5522261398        0.1879866259
 H         -1.5790892686        2.4958398815        0.0481189074
 H         -6.4927204841        2.2442172446       -0.0235372042
 H         -6.4439368818       -2.2911388489       -0.4810600200
 H         -5.2782364616       -4.4830135119       -0.6015493539
 H         -2.8088577286       -4.5496233959       -0.4169380765
 H         -1.5369980544       -2.4770594558       -0.1658039084
 H         -1.0707327669        0.8346328553        1.9363398601
 H          1.3894733071        0.8446875738        2.0369883980
 H          5.9670388825       -1.0596397778       -2.4062157156
 H          8.3095065873       -0.8026400322       -1.6312920974
 H          8.7934860584        0.0794699948        0.6066694374
 H          6.9603379841        0.7332177792        2.1296844753
 H          1.5667269268       -0.7972896347       -1.9000180758
 H         -0.9100846939       -0.8072210862       -2.0047795581
  45
  -74.8876420300000       0.203687490306479      !
 C         -4.6818713772        3.4887916055        1.0674841648
 C         -3.3066432239        3.5335642946        0.9612521039
 C         -2.5933104860        2.3992948836        0.6047808405
 C         -3.2440736973        1.1963153855        0.3603732486
 C         -4.6431901976        1.1725132515        0.4310012684
 C         -5.3497023093        2.3053772119        0.7901985448
 O         -5.3765728507        0.0509703693        0.1359870360
 C         -4.6882112116       -1.0728129473       -0.2471163318
 C         -5.4415977454       -2.1916589592       -0.5509931772
 C         -4.8205402303       -3.3785342830       -0.9098177632
 C         -3.4423442815       -3.4403976409       -0.9412118157
 C         -2.6822409391       -2.3204202146       -0.6398302157
 C         -3.2889068769       -1.1139872519       -0.3132643105
 N         -2.5548660511        0.0351217711       -0.0029561524
 C         -1.1475273575        0.0182415425       -0.0213230150
 C         -0.4288408700        0.2758526306        1.1466423359
 C          0.9476057750        0.2598466090        1.1326412326
 C          1.6407503727       -0.0172246172       -0.0503915581
 C          3.0829508966       -0.0306320110       -0.0338353754
 N          3.7981680771        0.2224670012        1.0011497685
 C          5.1309081430        0.1424171050        0.7541197349
 C          6.1496693392        0.3647882252        1.6781513532
 C          7.4587653020        0.2430088671        1.2665868920
 C          7.7725228507       -0.0963181703       -0.0488139561
 C          6.7808572123       -0.3212564444       -0.9833354332
 C          5.4631103705       -0.2007559525       -0.5776857592
 S          4.0121676603       -0.4173841660       -1.5033694259
 C          0.9177593630       -0.2733460469       -1.2162547892
 C         -0.4605732828       -0.2538745275       -1.2034131230
 H         -5.2411141302        4.3663223942        1.3508988650
 H         -2.7733992970        4.4523924755        1.1506680278
 H         -1.5202916842        2.4539087558        0.5087796668
 H         -6.4247471936        2.2406825480        0.8424433722
 H         -6.5154750741       -2.1136109576       -0.4930203681
 H         -5.4164421038       -4.2452700204       -1.1483739214
 H         -2.9424529726       -4.3619212975       -1.1969615437
 H         -1.6060653286       -2.3912687034       -0.6491709082
 H         -0.9635649473        0.4803321629        2.0624894919
 H          1.5144513009        0.4506739478        2.0297545427
 H          5.8938315651        0.6265263378        2.6922880878
 H          8.2579154107        0.4118932227        1.9726371171
 H          8.8074444403       -0.1857097899       -0.3426940979
 H          7.0202928286       -0.5842882863       -2.0019772550
 H          1.4445798778       -0.4791722755       -2.1369750732
 H         -1.0166687214       -0.4399384107       -2.1104788167
  45
  -74.8876269300000       0.200458685248459      !
 C         -4.6928260638        3.6484461966        0.1978809835
 C         -3.3167956356        3.6576969851        0.3014423407
 C         -2.5986310064        2.4747551901        0.2134209226
 C         -3.2460542365        1.2628798311        0.0082694928
 C         -4.6456503998        1.2605502365       -0.0614014170
 C         -5.3566591066        2.4429252648        0.0249544620
 O         -5.3751136448        0.1059709897       -0.1986729625
 C         -4.6812149285       -1.0747583904       -0.2877986528
 C         -5.4263334650       -2.2278600523       -0.4497895660
 C         -4.7963276523       -3.4565702267       -0.5810390114
 C         -3.4179112427       -3.5183629140       -0.5670096509
 C         -2.6658110476       -2.3650503724       -0.4027672167
 C         -3.2819361765       -1.1309308987       -0.2382574378
 N         -2.5542326673        0.0515435483       -0.0771711534
 C         -1.1469985567        0.0233222191       -0.0255802630
 C         -0.4977659355       -0.6501687930        1.0073660782
 C          0.8793438980       -0.6811654713        1.0573846402
 C          1.6377474801       -0.0416079694        0.0760199555
 C          3.0799458397       -0.0591981498        0.1029538091
 N          3.8291566923        0.4779138649       -0.7895514978
 C          5.1529905961        0.3245277808       -0.5294382980
 C          6.2022103549        0.7957117151       -1.3155024951
 C          7.4968402135        0.5591325344       -0.9078388565
 C          7.7663913923       -0.1380382879        0.2690002907
 C          6.7438536452       -0.6171979602        1.0641093741
 C          5.4405030923       -0.3849075050        0.6606668222
 S          3.9599247484       -0.8539063191        1.4324188008
 C          0.9820190424        0.6330039510       -0.9587494756
 C         -0.3937607263        0.6655497194       -1.0079335668
 H         -5.2558325388        4.5661080541        0.2617349971
 H         -2.7867752413        4.5848122456        0.4563911108
 H         -1.5248449543        2.4948219327        0.3143167416
 H         -6.4320721099        2.3975008927       -0.0395725029
 H         -6.5008035792       -2.1415551299       -0.4765806943
 H         -5.3861702425       -4.3509550380       -0.7047999908
 H         -2.9119287165       -4.4637142064       -0.6886642567
 H         -1.5888860390       -2.4257876985       -0.4125026412
 H         -1.0830001352       -1.1404356868        1.7711457285
 H          1.3774912929       -1.1979841503        1.8646981688
 H          5.9811222584        1.3338945460       -2.2232640321
 H          8.3190249720        0.9191943950       -1.5079077767
 H          8.7907136495       -0.3070494990        0.5647882900
 H          6.9488845634       -1.1572761918        1.9752772567
 H          1.5766110312        1.1173861285       -1.7167528389
 H         -0.9002941646        1.1814638684       -1.8102345977
  45
  -74.8872437400000       0.133635839599282      !
 C         -4.4870415218        3.6717224242        0.4416447882
 C         -3.1090655217        3.6229834627        0.3889873253
 C         -2.4572369632        2.4196582647        0.1664002455
 C         -3.1737205267        1.2441776417       -0.0210458175
 C         -4.5713264729        1.3003879839        0.0627666083
 C         -5.2165418457        2.5027072781        0.2866249214
 O         -5.3634554184        0.1853821708       -0.0508392795
 C         -4.7344250448       -1.0233142371       -0.2125623219
 C         -5.5409676336       -2.1438539331       -0.2853541253
 C         -4.9817218983       -3.3971291216       -0.4852604409
 C         -3.6144148992       -3.5159911863       -0.6312889777
 C         -2.8009051130       -2.3957588308       -0.5548826039
 C         -3.3420849359       -1.1380639434       -0.3189749231
 N         -2.5496847078        0.0107711397       -0.2426230140
 C         -1.1448932434       -0.0836758352       -0.2142456911
 C         -0.5084866796       -0.8165182702        0.7861126154
 C          0.8673720796       -0.8574623376        0.8467701367
 C          1.6392128608       -0.1646519718       -0.0872191339
 C          3.0785716568       -0.1323992086        0.0005790572
 N          3.8381510840        0.5695227771       -0.7588615359
 C          5.1529395844        0.4596053868       -0.4368063998
 C          6.2085996884        1.1153389817       -1.0667968704
 C          7.4901691044        0.9084664230       -0.6053337142
 C          7.7411105493        0.0577938179        0.4704501195
 C          6.7123460848       -0.6054734961        1.1098435377
 C          5.4216988698       -0.4002207914        0.6542061355
 S          3.9362789192       -1.0662511293        1.2521327156
 C          0.9972288290        0.5428715124       -1.1082708147
 C         -0.3782508129        0.5801316259       -1.1718849565
 H         -4.9989317164        4.6052371119        0.6137778277
 H         -2.5243973676        4.5194671795        0.5266337396
 H         -1.3792047129        2.3973395886        0.1497113197
 H         -6.2933718955        2.5001680160        0.3418274721
 H         -6.6067778050       -2.0121691767       -0.1883922046
 H         -5.6184703617       -4.2660728029       -0.5372166944
 H         -3.1662683557       -4.4813955912       -0.8092623883
 H         -1.7353267751       -2.4997391305       -0.6878573622
 H         -1.1021632941       -1.3337421582        1.5252530724
 H          1.3546093480       -1.4105281547        1.6365617716
 H          6.0017326235        1.7725270318       -1.8961204111
 H          8.3168656041        1.4139628478       -1.0815559474
 H          8.7555802005       -0.0842134833        0.8112234022
 H          6.9022645164       -1.2638616095        1.9432619380
 H          1.6009019859        1.0600525447       -1.8369265685
 H         -0.8741828446        1.1270610609       -1.9600736710
  45
  -74.8863068600000       4.958641487241551E-002 !
 C         -4.7405832070        3.4997911377        0.8030474179
 C         -3.3631589240        3.5502035422        0.7481084547
 C         -2.6305536231        2.4027735394        0.4802184457
 C         -3.2717597581        1.1913088519        0.2630405210
 C         -4.6712292472        1.1472890214        0.3234618113
 C         -5.3943716107        2.2931321708        0.5908242445
 O         -5.3790997076       -0.0146432973        0.1267182189
 C         -4.6633452708       -1.1568893766       -0.1422379584
 C         -5.3783273371       -2.3212984421       -0.3434448941
 C         -4.7165156197       -3.5096490252       -0.6233031380
 C         -3.3393442652       -3.5236470937       -0.7001887552
 C         -2.6147626663       -2.3580051001       -0.4968892247
 C         -3.2638470067       -1.1642331873       -0.2150054381
 N         -2.5661077320        0.0236351712       -0.0134430909
 C         -1.1479371735        0.0282349019       -0.0255391855
 C         -0.4425399370       -0.2499314973        1.1411248062
 C          0.9359680528       -0.2522071267        1.1298238848
 C          1.6309430613        0.0221679295       -0.0513986795
 C          3.0758105877        0.0050441013       -0.0357133043
 N          3.7846548484       -0.2339072307        1.0062075120
 C          5.1188817554       -0.1962136603        0.7565099150
 C          6.1325225019       -0.4149448160        1.6872907295
 C          7.4434827233       -0.3422363178        1.2708646947
 C          7.7639725339       -0.0556506057       -0.0557881063
 C          6.7777588153        0.1655492444       -0.9965475014
 C          5.4575588675        0.0945806510       -0.5859866966
 S          4.0115355191        0.3197292931       -1.5165307873
 C          0.9166904279        0.3020304506       -1.2160920604
 C         -0.4634523127        0.3060639034       -1.2031791993
 H         -5.3148988490        4.3889353562        1.0101596001
 H         -2.8434279443        4.4818015297        0.9120599530
 H         -1.5527134072        2.4456143647        0.4393849739
 H         -6.4695849111        2.2231395323        0.6308962824
 H         -6.4539116080       -2.2800364588       -0.2791114432
 H         -5.2845614681       -4.4130733904       -0.7803920657
 H         -2.8134316666       -4.4402024545       -0.9183480319
 H         -1.5371469452       -2.3732063670       -0.5566399888
 H         -0.9858594314       -0.4633917478        2.0495872886
 H          1.5005273631       -0.4650694013        2.0234722414
 H          5.8706833269       -0.6358402471        2.7095534009
 H          8.2392874591       -0.5097752830        1.9809284018
 H          8.8004932190       -0.0057643127       -0.3532357440
 H          7.0225043173        0.3876428997       -2.0235781299
 H          1.4490479085        0.5154928747       -2.1316037890
 H         -1.0206948109        0.5227189769       -2.1022818391
