49
 energy: -77.200969297006 gnorm: 0.000045752796 xtb: 6.7.1 (edcfbbe)
C           -6.85285664197171       -1.52212319777424        1.32869463394129
C           -5.87116195711415       -2.42915720343434        0.96065391519419
C           -4.63793758992629       -1.98117742267954        0.53062012613524
C           -4.36374225847896       -0.61423389640941        0.45615286351709
C           -3.05688333653961       -0.18137980412480       -0.00785600411444
N           -1.96890247024543       -0.97122911904843        0.14418678417974
C           -0.92478547140264       -0.32674423348679       -0.33546118368129
C            0.42632309065996       -0.87094106919692       -0.36455105483549
C            0.59212997631980       -2.16249963033537       -0.86364862176067
C            1.84220003889825       -2.72977083635695       -0.97814321650079
C            2.98477641154542       -2.02052869787698       -0.59899656840439
C            4.29454938685568       -2.56329158176658       -0.74445169222889
C            5.39047065271105       -1.86695136365816       -0.36272452903242
C            5.27446637158936       -0.56772809301542        0.21368809768289
C            6.39048368820781        0.16523061128238        0.62251696720069
C            6.24551392878343        1.41871482019435        1.18899586362436
C            4.98898151871824        1.96831392167086        1.36721935328832
C            3.84544227126434        1.27264890539913        0.97009645902082
C            2.53281678589253        1.79236405400022        1.16401761943929
C            1.43740005099187        1.11204947487043        0.75215666465490
C            1.54516120013596       -0.15256035043773        0.09852323935684
C            2.83548974668396       -0.72543537675534       -0.04276318025560
C            3.98263640294994       -0.00723791445745        0.37815862918771
N           -1.29788462620354        0.88349378755786       -0.85170821919757
C           -0.59065436243201        1.82595280936141       -1.53866609977985
C           -1.22327364954489        2.92472010118379       -2.01575393993621
C           -2.61972484315617        3.08707113374094       -1.82791695107545
C           -3.33467331729267        2.13357723704372       -1.16635615988687
C           -2.67656646049162        1.00129817291319       -0.65278780820889
C           -5.34992605143967        0.28945573679413        0.85104543946312
C           -6.58402448648421       -0.16410718691207        1.27882161854007
H           -7.81930909602620       -1.87209454033642        1.66136164663395
H           -6.07094323284984       -3.49027180608260        1.00843472010643
H           -3.86389016218096       -2.67720815132572        0.24473310821594
H           -0.28683713476867       -2.70772434183539       -1.17405331810835
H            1.94835966127521       -3.72738435890167       -1.37925059542593
H            4.38878935926008       -3.55103000342855       -1.17319970626277
H            6.38012935529298       -2.28506477577201       -0.48131714834865
H            7.37539308210437       -0.26040094569853        0.49292595494136
H            7.12097454023222        1.97098411248561        1.49947629599265
H            4.88155100296410        2.94410863476275        1.81921418669762
H            2.42940739302148        2.74619168788309        1.66190944202196
H            0.45288031773440        1.51473173025014        0.94172874836688
H            0.46198273726666        1.63572753182975       -1.67761818417769
H           -0.66349697432318        3.67047985292865       -2.55582699173921
H           -3.10745961236773        3.96083553332575       -2.22961530070030
H           -4.40240373346583        2.21482132200150       -1.04574061311005
H           -5.14119692753351        1.34871311297946        0.85088288121325
H           -7.33977157512198        0.54679261662578        1.58219082813821
