49
 energy: -77.133195786535 gnorm: 0.000053733982 xtb: 6.7.1 (edcfbbe)
C           -5.60101736432734        3.33095405297554        0.52199912548082
C           -4.36779437507341        3.33747349167822        1.15639791617991
C           -3.49514780718338        2.28150067660852        0.98706399621957
C           -3.84403981083220        1.19303558985504        0.18242453692779
C           -2.89893750832476        0.10220047011262        0.03853604811874
N           -1.58442664351955        0.30458804618994        0.20446881875067
C           -0.94667165025207       -0.85888111172413        0.06154767833832
C            0.43707304940829       -1.07399326669162        0.26555112346750
C            0.89241661366458       -2.30623425083513        0.79517122988388
C            2.20872461900033       -2.55904531172296        1.01650351072630
C            3.21261183914581       -1.59219490803154        0.69086663923000
C            4.56877484540274       -1.85413121316362        0.87346189902312
C            5.52676004409176       -0.90012068274289        0.57721594116567
C            5.15490538958730        0.35974768225075        0.08569425731708
C            6.11417597539371        1.35459276566096       -0.22506416039835
C            5.72274047648486        2.58977648503280       -0.70876370904473
C            4.38926921429981        2.88082538666499       -0.90225471873400
C            3.38786377908309        1.91896111416433       -0.60361134089436
C            2.02522689926133        2.17806593778731       -0.78546825705044
C            1.06736713577395        1.22009128945604       -0.49474714992372
C            1.41960596821438       -0.03473863084083        0.00201264675079
C            2.79552316092766       -0.32696697432779        0.19700113098743
C            3.77685394514865        0.64863869327557       -0.10516686562473
N           -1.87270355843805       -1.85829637662519       -0.24461018488850
C           -1.71072517015307       -3.14231980454488       -0.64827128136146
C           -2.79885345699022       -3.91751283552126       -0.90747668620483
C           -4.10206018408735       -3.38518664526268       -0.76343466356353
C           -4.26311635745944       -2.06372854555637       -0.44882837099860
C           -3.13260444234175       -1.26292912523236       -0.23881402997322
C           -5.07750032847370        1.20719500953276       -0.47091367662000
C           -5.94640636874433        2.26810848814742       -0.29757901804365
H           -6.28605293099394        4.15493727393817        0.65792401183153
H           -4.08854709140571        4.16909953087346        1.78699053341878
H           -2.53222128005985        2.27169009828217        1.47472679368683
H            0.16200463439865       -3.03660043498044        1.11421586991368
H            2.52065116045835       -3.49061692758218        1.46597395289437
H            4.87066046407888       -2.82087178403634        1.25211841997600
H            6.57468844869135       -1.11980600626931        0.72391420947710
H            7.16057776023990        1.13197999082702       -0.07518463956420
H            6.47280465706569        3.33406166730051       -0.93888655569013
H            4.08499716565305        3.84418237837577       -1.28439197429697
H            1.71799378686885        3.14387344028327       -1.16090456152141
H            0.02460760853867        1.44871319338617       -0.64372475020809
H           -0.70034103930050       -3.49702086468967       -0.77132176163251
H           -2.66303511376250       -4.93801680865759       -1.22438224057229
H           -4.95736359247486       -4.02024715775028       -0.92813419152591
H           -5.24239805506036       -1.62452324265663       -0.35607184914550
H           -5.34227156035389        0.40569195007267       -1.14311512216861
H           -6.89774418408158        2.26936034929836       -0.81006569615777
