49
 energy: -77.201720498947 gnorm: 0.000113715727 xtb: 6.7.1 (edcfbbe)
C           -5.66821673543052        3.30511662805564        0.64420214441500
C           -4.48068087348265        3.26531447172288        1.35838810323081
C           -3.59487478672382        2.22208714343775        1.17553887591576
C           -3.88178986815038        1.19429274043038        0.27480498916777
C           -2.92182579562354        0.11616592123033        0.10905088568511
N           -1.61174914303115        0.31414954011891        0.37744498415228
C           -0.96661111215231       -0.81274860313003        0.14875311348874
C            0.45366413496987       -1.02982459961002        0.37655053728587
C            0.86367834696966       -2.19046799312797        1.03583242039124
C            2.19444235047383       -2.44095736836490        1.29038090893709
C            3.17992368761606       -1.53334254733450        0.89660508094664
C            4.56346957484761       -1.76617022495542        1.14553418941815
C            5.50464565569728       -0.86863945500545        0.77135684719326
C            5.14569754762706        0.34425524886442        0.11279927845273
C            6.10055880107586        1.28392797667432       -0.28104499868755
C            5.72246792025841        2.45125706126701       -0.91948129105885
C            4.38903007611115        2.70991378371874       -1.17910664047324
C            3.39978693016942        1.79900965218443       -0.80229606832142
C            2.01639238383535        2.02906990044485       -1.05455683712070
C            1.07152879988825        1.13431916143828       -0.68105812736972
C            1.41722177488168       -0.07762512241941       -0.01496810578334
C            2.78752079404396       -0.33819476847119        0.24310090267002
C            3.77573708471631        0.59997536790931       -0.14820860023310
N           -1.83321250331500       -1.78288155719617       -0.27847990261590
C           -1.62124624569833       -3.05702400372074       -0.71630129440241
C           -2.67294880339687       -3.82410953313747       -1.09205869641398
C           -3.99358650646092       -3.31096519680271       -1.02968596006962
C           -4.20374365592064       -2.01895633273306       -0.65016306863415
C           -3.10762436102058       -1.20862565048525       -0.30281297326943
C           -5.06781286387431        1.25618846661617       -0.45642257856073
C           -5.95296604895754        2.30141285429613       -0.26707312683828
H           -6.36380874707357        4.11880032208236        0.79004158701139
H           -4.24640725052552        4.05191154359062        2.06157001828779
H           -2.66545747715280        2.18140819287367        1.72331292289847
H            0.11912167458377       -2.89073799447687        1.38865592332249
H            2.48303112733107       -3.34357177480634        1.80996764300177
H            4.84207561545182       -2.68321286630616        1.64564770530719
H            6.55202107473157       -1.05259179935619        0.96550342930720
H            7.14472490944284        1.08873592683969       -0.08150806098512
H            6.47549183792246        3.16686509867145       -1.21760702843057
H            4.09981530589676        3.62410761002616       -1.67775412702827
H            1.73485450489647        2.94395372191716       -1.55687990222080
H            0.02706456420535        1.33161997812572       -0.86493480516620
H           -0.59704603925714       -3.39326919890367       -0.75386244668991
H           -2.50378135989650       -4.83119875253588       -1.43641766083003
H           -4.82094786301389       -3.94891579063836       -1.29632549079752
H           -5.19630990651524       -1.60262438753357       -0.59884023458848
H           -5.28561562253495        0.50116167722564       -1.19645203019847
H           -6.86880919786348        2.33697823108450       -0.84016087609409
