79
 energy: -125.851214512035 gnorm: 0.000166200270 xtb: 6.7.1 (edcfbbe)
C           -6.07671325520124       -4.73559331392624        0.50539216583509
C           -6.76859607012506       -3.54734617269074        0.32811831434264
C           -6.07967165183471       -2.35750343263745        0.19644853559492
C           -4.68688435657197       -2.35000294208142        0.24106377123330
C           -3.95247514098596       -1.09312862151289        0.10468087066145
N           -4.64777876662766        0.03512519225061       -0.00392833090126
C           -3.93729933835581        1.15365698870456       -0.11406271402791
C           -4.65498470495549        2.42037751918138       -0.24853205906606
C           -6.04758360793351        2.44612244095749       -0.20371145182981
C           -6.72089696098811        3.64509119002185       -0.33334347392939
C           -6.01353412968262        4.82449617524522       -0.50891334401401
C           -4.62807376019621        4.80399842736470       -0.55475482439054
C           -3.94817236789675        3.60879402065264       -0.42516224567273
N           -2.60645886172628        1.19091748906354       -0.11036108340894
C           -1.99527163682359        0.01696498315239       -0.00685319153136
C           -0.53065655764327        0.00611329160204       -0.00654290957258
C            0.16878868634132        1.19280613982973        0.17643050790224
C            1.55855710768925        1.18374272081160        0.16735915130845
N            2.26570675055091        2.37886087722681        0.33065327161637
C            2.00540723323745        3.56094179655569       -0.33886970544025
C            1.06727175615828        3.83260852882240       -1.32447723579299
C            1.03724744845641        5.10967894571606       -1.85171089973125
C            1.92274872435134        6.09579199967086       -1.42292693672950
C            2.87540512249428        5.82384541067512       -0.46163515003713
C            2.92370974480932        4.54805825082911        0.08461527721742
C            3.77007681560423        3.92659601431340        1.06480887704174
C            4.82598505382253        4.38644908633518        1.84032950086040
C            5.42160371638692        3.51518845402078        2.73017881117583
C            4.96446100894398        2.20641578210315        2.86393554435671
C            3.91566504269362        1.72609635538495        2.10285721758572
C            3.33127689251677        2.58837658919801        1.18642204179455
C            2.24367592780849       -0.01650109735246       -0.00118354708732
C            1.53997334529241       -1.20547112270924       -0.17289687308336
N            2.22766645821576       -2.41239831526076       -0.33169472570209
C            3.29721508270365       -2.63984305051431       -1.17795769680473
C            3.90319488642658       -1.78831084501637       -2.09042665795649
C            4.95061308027480       -2.28638647875373       -2.84196212680143
C            5.38553395698721       -3.60214719787780       -2.70291432733261
C            4.76835473261278       -4.46258694470060       -1.81724999613319
C            3.71345452805713       -3.98477832988244       -1.05129605990877
C            2.84880990743690       -4.59161739257735       -0.07794099845303
C            2.77553869642268       -5.86601563587738        0.46877066093296
C            1.81031007608401       -6.12205420201163        1.42183613493354
C            0.93707174773753       -5.12153717502601        1.84228458325124
C            0.99221573624857       -3.84546064461224        1.31467817933749
C            1.94288313509202       -3.58952445180709        0.33685655393914
C            0.15025626001432       -1.19156107461884       -0.18766932918558
N           -2.62243780502490       -1.14852770305729        0.09799359947918
C           -3.99565300313080       -3.54730011242338        0.41946798009658
C           -4.69109122418949       -4.73332363942419        0.55091326926319
H           -6.61826547770490       -5.66455781303560        0.60884827500824
H           -7.84815487225526       -3.55225106232290        0.29290497026927
H           -6.60043164043111       -1.42334263283038        0.05661632032858
H           -6.58055540239537        1.51863207179479       -0.06545814445499
H           -7.80031369985966        3.66400430930748       -0.29800080809055
H           -6.54287257242548        5.76068692630218       -0.61045529094675
H           -4.07885284833452        5.72397042288504       -0.69154354280556
H           -2.87050593688713        3.57462913804429       -0.46005167830045
H           -0.37750902150317        2.10647615584185        0.34440342552117
H            0.38762050148980        3.07271343749879       -1.67912028889030
H            0.31255436094013        5.34672758193718       -2.61674637130842
H            1.86546767130941        7.08235249492724       -1.85826199880237
H            3.57315034943873        6.58237333309011       -0.14042326126859
H            5.16664485120279        5.40676952566005        1.74937228201663
H            6.24606776669606        3.85138683207827        3.34105307450689
H            5.43715067521214        1.55224800645772        3.58160782629796
H            3.55731915817951        0.71628464481433        2.23408241365940
H            3.32265297245005       -0.02510795643390        0.00164774815804
H            3.56234484354302       -0.77304855459357       -2.22604456677209
H            5.43987750325983       -1.64076691311654       -3.55625710780954
H            6.20966564521711       -3.95232621268445       -3.30633676881967
H            5.09165733307142       -5.48816543934881       -1.72222713840121
H            3.46401068672904       -6.63572129596649        0.15422774837032
H            1.73345076866077       -7.10724116423457        1.85725379037401
H            0.20203961982315       -5.34633619088668        2.60113455583212
H            0.32197477323579       -3.07459598438192        1.66345147372293
H           -0.41021951674243       -2.09611722016514       -0.35811086624457
H           -2.91764119703556       -3.52713248416457        0.45436628031091
H           -4.15395375861114       -5.66011024819130        0.68976048623364
