79
 energy: -125.776741998244 gnorm: 0.000107039143 xtb: 6.7.1 (edcfbbe)
C           -6.05514768070591       -4.81911950959186       -0.49203590240709
C           -6.73718635445952       -3.61482949139533       -0.57408987951100
C           -6.04477753811976       -2.42108802298052       -0.53724107833209
C           -4.65440394999478       -2.42117222917804       -0.41848695464329
C           -3.92151413373984       -1.16399321045143       -0.37971645121843
N           -4.62257207512202       -0.01042118433479       -0.42576309285490
C           -3.92695460739377        1.14583824687006       -0.36510628394627
C           -4.66606436371141        2.39979821322424       -0.38283706092537
C           -6.05743982259109        2.39422374569081       -0.48920983643703
C           -6.75618099419418        3.58474916228439       -0.50342851163938
C           -6.07948093624118        4.79131877987780       -0.41118175538472
C           -4.69622895299321        4.80350043070063       -0.30414235819404
C           -3.99074038793434        3.61793446831513       -0.28986749857701
N           -2.62534151014253        1.17031348302523       -0.28645412085479
C           -1.94735094429228       -0.00521044791900       -0.25767918493720
C           -0.53201510399713       -0.00212508025378       -0.15414959696336
C            0.18310740012277        1.20996176392334       -0.10255046190933
C            1.55643384616384        1.20646415992123        0.04639528169033
N            2.24573466871358        2.42596544709412        0.14054235790196
C            3.36951416947730        2.78557587014688       -0.57164949715540
C            4.04474194757967        2.09478728029010       -1.56819697185272
C            5.14483892815991        2.69972202645844       -2.14509832197644
C            5.56391955993833        3.96858181689399       -1.75295988682966
C            4.87925866461605        4.67511294047333       -0.78163497340287
C            3.77264727546973        4.08659119795344       -0.18780477276582
C            2.83405032340827        4.52452594681094        0.80924737944209
C            2.70727137189602        5.68670945626167        1.55568359994027
C            1.66783051089763        5.78009061642008        2.46241368704690
C            0.77340216197258        4.72698534343834        2.63874878549142
C            0.88096907332892        3.55837510861887        1.90887830534559
C            1.90766410127173        3.46848326786560        0.97809176578437
C            2.26461025187184        0.00506427054895        0.13366509542928
C            1.56161508056286       -1.19991562386176        0.05484739272788
N            2.25630597266310       -2.41562709202837        0.15911553266052
C            3.38023297323886       -2.77730828548749       -0.55160564044351
C            4.04981117197066       -2.09373653627696       -1.55690319551559
C            5.15158625170838       -2.69936135414575       -2.12985282616555
C            5.57772838651687       -3.96195007353436       -1.72524677511658
C            4.89883977792114       -4.66145599176012       -0.74480366869374
C            3.79072419371453       -4.07209374668730       -0.15466226386212
C            2.85676144181572       -4.50368113764497        0.84950736373531
C            2.73784234716087       -5.65783377927973        1.60954937364787
C            1.70133406360470       -5.74598445197597        2.52018428684776
C            0.80184360358715       -4.69558837471209        2.68668472139180
C            0.90141286320941       -3.53498913315685        1.94304474570995
C            1.92545546636313       -3.45048114360180        1.00885874282518
C            0.18840764680056       -1.21070979386445       -0.09483140660437
N           -2.61997978994452       -1.18346749318989       -0.29832846061466
C           -3.97368883581716       -3.63701242022676       -0.33591145621699
C           -4.67288084527306       -4.82582063926152       -0.37248883207485
H           -6.59943354251096       -5.75162456457373       -0.52097341293003
H           -7.81350222316801       -3.61028447168508       -0.66708560904451
H           -6.56186203487427       -1.47592491783217       -0.60011885329371
H           -6.57035542752058        1.44732625954259       -0.55979629875342
H           -7.83328773419880        3.57589455204028       -0.58642787287125
H           -6.62871907112780        5.72130661142902       -0.42229754263378
H           -4.16967839936556        5.74403980590912       -0.23153611281677
H           -2.91482860961068        3.61180362862397       -0.20615705501220
H           -0.35789985475037        2.13721811678910       -0.19935147055645
H            3.71218114602285        1.12220491418739       -1.89463092866289
H            5.68832314358872        2.17933300803723       -2.91966536023899
H            6.42994080858866        4.40789448506424       -2.22492328249377
H            5.19340903449526        5.66649951810044       -0.49231276747579
H            3.40862839099369        6.49763272255912        1.43004298023609
H            1.54930481679455        6.67768838110463        3.05074607969205
H           -0.02018634072226        4.82397427498899        3.36460429059077
H            0.19372461934529        2.74113044271449        2.06433747478150
H            3.32916234645156        0.00781151455027        0.30500431283464
H            3.71157061259320       -1.12630149558880       -1.89274553591960
H            5.69082032859139       -2.18460233205348       -2.91112126524048
H            6.44479060065537       -4.40204624500184       -2.19456849721806
H            5.21859555267883       -5.64813350065898       -0.44567601109826
H            3.44299258901998       -6.46659600560807        1.49140780344141
H            1.58909265756914       -6.63725431658871        3.11927537912845
H            0.01068855129268       -4.78831573540693        3.41574634506022
H            0.21023364707549       -2.71956296045297        2.09048556348823
H           -0.34836578959042       -2.14112872775720       -0.18470643416240
H           -2.89860005833475       -3.62651809880425       -0.24269492336918
H           -4.14217053727988       -5.76459211219833       -0.30784557451032
