  79
       -125.85117081
 C         -6.0628261465       -4.7401885308        0.5146829740
 C         -6.7576542530       -3.5487970766        0.3719751953
 C         -6.0707532410       -2.3583719621        0.2346909140
 C         -4.6770537435       -2.3532170220        0.2394549422
 C         -3.9445145934       -1.0955641255        0.0998438643
 N         -4.6409428754        0.0321956609       -0.0062186429
 C         -3.9314779310        1.1515833597       -0.1153759451
 C         -4.6495533693        2.4183339833       -0.2470958233
 C         -6.0425462041        2.4423726608       -0.2176175402
 C         -6.7154435668        3.6421373851       -0.3420804173
 C         -6.0072650699        4.8239062083       -0.4970711070
 C         -4.6213848018        4.8050057044       -0.5284852905
 C         -3.9419428989        3.6090377804       -0.4043142609
 N         -2.6007714869        1.1901085952       -0.1110674568
 C         -1.9884111819        0.0164492479       -0.0115212533
 C         -0.5238783316        0.0073931304       -0.0090314447
 C          0.1743701356        1.1942122893        0.1766827067
 C          1.5642308353        1.1860051537        0.1722098045
 N          2.2678371029        2.3834945327        0.3344308914
 C          2.0070125520        3.5610137412       -0.3430719641
 C          1.0722266687        3.8242232242       -1.3341621318
 C          1.0406364949        5.0981132298       -1.8688790407
 C          1.9213966879        6.0893199548       -1.4420364787
 C          2.8705219798        5.8258486581       -0.4749303334
 C          2.9202122121        4.5533907700        0.0789870234
 C          3.7636858703        3.9401987716        1.0668195841
 C          4.8136043582        4.4082656094        1.8455558104
 C          5.4072465702        3.5442243376        2.7436927690
 C          4.9542877315        2.2344377637        2.8819954660
 C          3.9115380119        1.7459693988        2.1177861298
 C          3.3288181279        2.6011532085        1.1936720678
 C          2.2510613147       -0.0138927426        0.0077055060
 C          1.5483152913       -1.2029571329       -0.1680706068
 N          2.2343617990       -2.4109704966       -0.3255073481
 C          3.3033449029       -2.6426843086       -1.1713747434
 C          3.9202949377       -1.7904837666       -2.0758559604
 C          4.9644591099       -2.2934801340       -2.8286687007
 C          5.3857167411       -3.6146308284       -2.6987046689
 C          4.7574968173       -4.4754767372       -1.8212799586
 C          3.7055079826       -3.9928100061       -1.0543589966
 C          2.8320216161       -4.5987633021       -0.0883924580
 C          2.7427412107       -5.8773763914        0.4459730109
 C          1.7718388875       -6.1315000590        1.3937634781
 C          0.9092288917       -5.1250026250        1.8217023079
 C          0.9801347481       -3.8448210446        1.3061043639
 C          1.9356993627       -3.5907028794        0.3325746267
 C          0.1586775915       -1.1893236292       -0.1893048327
 N         -2.6143694786       -1.1499151690        0.0896711914
 C         -3.9830051299       -3.5536112259        0.3833562862
 C         -4.6763314368       -4.7402260776        0.5200658499
 H         -6.6026784116       -5.6696973802        0.6222348265
 H         -7.8378680617       -3.5515189350        0.3688948306
 H         -6.5938400186       -1.4218071064        0.1228676052
 H         -6.5760561440        1.5130126960       -0.0951205400
 H         -7.7952101335        3.6598390803       -0.3185373874
 H         -6.5362802529        5.7607464939       -0.5942347655
 H         -4.0715319632        5.7268364695       -0.6494887154
 H         -2.8639440289        3.5758876084       -0.4280413326
 H         -0.3726008206        2.1077750034        0.3430093658
 H          0.3962712271        3.0602967488       -1.6872012366
 H          0.3184909451        5.3285415035       -2.6383227429
 H          1.8630521209        7.0731574386       -1.8833617800
 H          3.5644317690        6.5883944865       -0.1549420143
 H          5.1509314124        5.4293365791        1.7506313118
 H          6.2267922564        3.8869607876        3.3575577263
 H          5.4254142991        1.5861493906        3.6060092627
 H          3.5562630721        0.7354733690        2.2521516540
 H          3.3300301410       -0.0219585576        0.0163262802
 H          3.5900785517       -0.7708678753       -2.2047970350
 H          5.4619462071       -1.6475308707       -3.5369675776
 H          6.2079228882       -3.9684249848       -3.3026278115
 H          5.0699662836       -5.5050393869       -1.7332782173
 H          3.4232227284       -6.6518713524        0.1259720548
 H          1.6822175148       -7.1199240779        1.8192528557
 H          0.1697288260       -5.3483379894        2.5766181754
 H          0.3176837912       -3.0698899421        1.6606816308
 H         -0.4006398671       -2.0938021985       -0.3636648286
 H         -2.9045096318       -3.5353385629        0.3870437073
 H         -4.1368665750       -5.6693969639        0.6312251753
