79
 energy: -125.851184975187 gnorm: 0.000032419610 xtb: 6.7.1 (edcfbbe)
C           -6.04832523906317       -4.80296678820341        0.19154432469784
C           -6.74687004685902       -3.61096278044002        0.07610107114533
C           -6.06552735465587       -2.41047202017670        0.02812182136639
C           -4.67364996932492       -2.39587908420048        0.09469534071895
C           -3.94739348293059       -1.12793941922646        0.04271714539626
N           -4.65048023754135       -0.00012412138607       -0.00004210324852
C           -3.94748687262670        1.12774868250239       -0.04283380952113
C           -4.67385666106941        2.39562720810177       -0.09472097881605
C           -6.06573852581163        2.41008210904305       -0.02820226805393
C           -6.74719263145238        3.61051380705959       -0.07607155777082
C           -6.04875517467023        4.80259710188319       -0.19134578962980
C           -4.66407380379071        4.79335675588514       -0.25900493249364
C           -3.97607906431700        3.59674483778320       -0.21080350417095
N           -2.61708154618436        1.17350636685974       -0.04142733952334
C           -1.99735971700209       -0.00001618522453       -0.00013295655012
C           -0.53270698872527        0.00002939329590       -0.00017232207670
C            0.15785405426077        1.19146999315661        0.18661125774329
C            1.54758499593176        1.19438872473517        0.17214705460114
N            2.24475855327875        2.39576686013122        0.33224059803817
C            1.97032050962548        3.57507280338346       -0.33685124518690
C            1.02183399473250        3.83908982605939       -1.31462720927336
C            0.97800769303986        5.11534083332327       -1.84290067193973
C            1.86002304105281        6.10831110954308       -1.42290861182984
C            2.82317164338368        5.84406362150521       -0.46998037316582
C            2.88540791368927        4.56920793622419        0.07703734762888
C            3.74538600801134        3.95493162534887        1.04983997200978
C            4.80587483308860        4.42322631117340        1.81395190335475
C            5.41656822672201        3.55735279363764        2.69880120566863
C            4.96959452583934        2.24575719591580        2.83910953765880
C            3.91641203796202        1.75715653475229        2.08943708427140
C            3.31708993733588        2.61387113775857        1.17739863044447
C            2.24210941852377        0.00007974270973       -0.00018788711473
C            1.54762755914559       -1.19425743139077       -0.17249325300163
N            2.24483123377831       -2.39563255073920       -0.33248265194556
C            3.31720688513413       -2.61379919216388       -1.17756479361227
C            3.91651904235204       -1.75717935573133       -2.08969838230902
C            4.96975573238909       -2.24583046755172       -2.83926209067647
C            5.41679257231178       -3.55738326978927       -2.69875202976873
C            4.80611442791115       -4.42316407580396       -1.81380131494203
C            3.74557188478882       -3.95481816915179       -1.04979565669991
C            2.88559864760383       -4.56899762609479       -0.07692735868556
C            2.82342455512223       -5.84377007939343        0.47029215766756
C            1.86026879729470       -6.10792341613875        1.42323929418542
C            0.97818178077481       -5.11494016303353        1.84305023007059
C            1.02194453999677       -3.83877121443291        1.31457413862829
C            1.97044186665848       -3.57485231416344        0.33678215953185
C            0.15789797706097       -1.19138668091672       -0.18695372042393
N           -2.61698579730299       -1.17358777581703        0.04121700548863
C           -3.97576363328743       -3.59691788197991        0.21094094737657
C           -4.66364745200703       -4.79358876305419        0.25925657708258
H           -6.58389303952333       -5.74037791027809        0.22872461946468
H           -7.82568672834528       -3.62126599933768        0.02324558621676
H           -6.59152525293203       -1.47322082434241       -0.06305183217825
H           -6.59165180382273        1.47277049172173        0.06283689435279
H           -7.82601296049880        3.62070831449723       -0.02327013665631
H           -6.58440957057298        5.73996217254171       -0.22843786517507
H           -4.12177969545038        5.72314718797603       -0.34912308883001
H           -2.89891310692947        3.57143222471734       -0.26364600162352
H           -0.39561674190866        2.09975400598177        0.35979147469046
H            0.34457923945606        3.07418112437664       -1.66296615021442
H            0.24490881956421        5.34625614173003       -2.60177065354605
H            1.79169839860455        7.09399907730459       -1.85861610182527
H            3.51842384134163        6.60779773572353       -0.15578454787320
H            5.13853230318248        5.44572358952030        1.71797056722956
H            6.24506967776137        3.89996502758486        3.30057633145928
H            5.45400149961726        1.59588638985259        3.55286091681163
H            3.56628198485374        0.74518619099981        2.22603216481933
H            3.32110529193240        0.00009928398167       -0.00019709136019
H            3.56634120102962       -0.74524528655476       -2.22644164141694
H            5.45415715850143       -1.59603579634301       -3.55308656082156
H            6.24533486846170       -3.90003691461273       -3.30044743703208
H            5.13882629804702       -5.44562863252642       -1.71765936438444
H            3.51873141117997       -6.60751238341280        0.15623733117456
H            1.79199452761843       -7.09354500339998        1.85910477376385
H            0.24507842144318       -5.34577768878120        2.60193960395283
H            0.34463564720934       -3.07384741452434        1.66277473814492
H           -0.39554117272872       -2.09969463428116       -0.36010948149455
H           -2.89860261967378       -3.57149733953293        0.26383496639555
H           -4.12126958759549       -5.72331661614129        0.34951699361549
