79
 energy: -125.776297076207 gnorm: 0.000055184424 xtb: 6.7.1 (edcfbbe)
C           -6.11002995051194       -4.76089210335647        0.09835799155003
C           -6.78593031976718       -3.55186169815649        0.03749200519535
C           -6.08270258404054       -2.36440291969249        0.00339442561096
C           -4.68748764919695       -2.37564127463543        0.02924644547671
C           -3.94316127791198       -1.12529844735734        0.00191148403194
N           -4.63478246232326        0.03515535125106       -0.00577577866031
C           -3.92550876079700        1.18487733477541       -0.01152936596122
C           -4.65053146254213        2.44647363854196       -0.04070694683340
C           -6.04581250108925        2.45659929371555       -0.01869592182853
C           -6.73067916764707        3.65469234563834       -0.05447938371017
C           -6.03617365263937        4.85323730007628       -0.11322734513252
C           -4.64886682451554        4.84980728414231       -0.13546791383497
C           -3.95711668011074        3.65669842562227       -0.09946414669526
N           -2.62141456604677        1.19608481472763        0.00262096646141
C           -1.95423332217504        0.01461793308384       -0.00217569965549
C           -0.53399461747332        0.00378930449068       -0.00026972296651
C            0.19337309205278        1.20174842490321        0.13181858648932
C            1.57489783683812        1.18443652132643        0.12828973844739
N            2.28318082015929        2.38825172094370        0.26848122401325
C            2.04668968251872        3.54398472124981       -0.44555104324379
C            1.14126986648196        3.78015554180596       -1.47177966664969
C            1.12473420217649        5.04038223388231       -2.03882782336012
C            1.99178891261544        6.04270435917590       -1.61012987689080
C            2.91241787861830        5.80614615020295       -0.60622477512393
C            2.94587520449382        4.54982260627666       -0.01925576014332
C            3.75530264072584        3.96074816935516        1.01263614991699
C            4.78062105793174        4.44229372601721        1.81287708923944
C            5.34109364572006        3.59556072614602        2.75110541282104
C            4.87887676918808        2.29093863730319        2.90577851033236
C            3.85877012795808        1.78862628826965        2.12025276104973
C            3.30947300627113        2.62540792094439        1.15773736371287
C            2.27492787520284       -0.01763879626172        0.00355240626661
C            1.55697774524865       -1.20889122358555       -0.12310826493821
N            2.24719763487129       -2.42338442932214       -0.26133079426675
C            3.27224335179579       -2.67621199402476       -1.14770346202893
C            3.83688513655428       -1.84797852797454       -2.10872836449652
C            4.85142542903741       -2.36582420865816       -2.89136910246608
C            5.29331322841303       -3.67731224989273       -2.73532647036544
C            4.71741182632544       -4.51532766841613       -1.79862218768717
C            3.69730063911995       -4.01816199084172       -1.00127375020485
C            2.87614125328020       -4.59474570789054        0.02839555877180
C            2.82195715056474       -5.85034917748718        0.61536946873182
C            1.89506056517925       -6.07276312256662        1.61673200332653
C            1.04215453571636       -5.05732329846614        2.04294511662482
C            1.07942000526937       -3.79756276861586        1.47584708377823
C            1.99117291384580       -3.57530821524431        0.45212286334557
C            0.17537018721501       -1.20512399735998       -0.13040905358009
N           -2.63931966178813       -1.15653884542014       -0.00874592393616
C           -4.01285802809618       -3.59633613495183        0.09010445846132
C           -4.72289703687543       -4.77870167304947        0.12440901215672
H           -6.66286242040814       -5.68838412675895        0.12602057382725
H           -7.86599347438583       -3.53868380167081        0.01726650534195
H           -6.59492138741231       -1.41567147064988       -0.04383518102132
H           -6.57262925622090        1.51580920650889        0.02692843191000
H           -7.81086872469438        3.65805683317581       -0.03722629927785
H           -6.57465985742571        5.78909476133201       -0.14220315114015
H           -4.10840500906508        5.78408721723302       -0.18192082538627
H           -2.87822121013384        3.63828457445347       -0.11843917422376
H           -0.34509541023468        2.12559559063329        0.26717317141834
H            0.47688898105434        3.00491451298915       -1.82123627507113
H            0.42587136106948        5.25130393609566       -2.83458627750152
H            1.94679846500613        7.01516353376319       -2.07724360754729
H            3.59414535519878        6.57907976172302       -0.28509626759681
H            5.12744225686307        5.45892286477436        1.70591563436584
H            6.14183290432966        3.95032663729225        3.38257728388801
H            5.32425803174791        1.65864379112693        3.65941964913237
H            3.49323164997813        0.78333704172033        2.26291735783554
H            3.35281015258049       -0.02586093153958        0.00502879801252
H            3.48707702392943       -0.83726099154602       -2.25247045835575
H            5.30847818616774       -1.74045381250959       -3.64379937430947
H            6.09032605984761       -4.04427643383156       -3.36453617587445
H            5.04842949036839       -5.53710338170584       -1.69063026345068
H            3.49274471733753       -6.63359451676036        0.29619434276994
H            1.83399638786887       -7.04436686200583        2.08379980380005
H            0.33796164319485       -5.25750084821020        2.83677771799079
H            0.42593525809208       -3.01226854376068        1.82339833367247
H           -0.37676994752583       -2.12064823317097       -0.26724213788168
H           -2.93386859924197       -3.59444030690014        0.11204738638276
H           -4.19693725693672       -5.72113789699626        0.17251058630588
