  114
       -158.28996778
 C         -2.2527060710       -3.7429449597        1.7543452025
 C         -1.0630783283       -3.4834522970        2.6859187622
 C         -1.5672194948       -3.2166676428        4.1116229132
 C         -0.2006120224       -4.7486238064        2.7185217150
 C         -0.2951798796       -2.2641303125        2.1973989292
 C         -0.9427781455       -1.0225348947        2.1570083419
 C         -0.2972746052        0.1451255657        1.8046107903
 C          1.0423270007        0.0715294172        1.4586878510
 C          1.6914098671       -1.1765336831        1.4042060967
 C          1.0289991923       -2.3308832652        1.7986868506
 C          3.0168366224       -0.9258284593        0.9071907071
 C          4.0978368498       -1.7555743193        0.6410043033
 C          5.2794380807       -1.2157166126        0.1579731561
 C          6.4951388123       -2.0679558892       -0.1754528757
 C          7.6593762639       -1.6559448535        0.7365800974
 C          6.8825701667       -1.8472424636       -1.6448329314
 C          6.2368150744       -3.5640106647        0.0246001440
 C          5.3566588686        0.1721625153       -0.0135348390
 C          4.3010399350        1.0214607700        0.2525353804
 C          3.1105934866        0.4647098469        0.6915923433
 N          1.9158221382        1.0662728711        1.0477336307
 C          1.6201640486        2.4252236028        1.0427149304
 C          0.9806858873        2.9980951013        2.1435994064
 C          0.5620022116        4.3105308191        2.1020645456
 C          0.7449483258        5.0693894279        0.9467466116
 C         -0.0470932161        6.3120288580        0.7864844495
 O         -0.2957256460        7.1138828035        1.6503907814
 C         -0.6859617235        6.3245775620       -0.6210905511
 O         -0.5149873995        7.1930684129       -1.4377250914
 C         -1.3609485485        5.0243186550       -0.8464275261
 C         -1.0872602914        4.3352464444       -2.0272936476
 C         -1.3568708445        2.9867465536       -2.1204522271
 C         -1.9370511620        2.3083941801       -1.0476173994
 N         -2.0616057611        0.9236063489       -1.0921679578
 C         -3.1799578788        0.1694099962       -0.7848303345
 C         -4.4519974763        0.5691577517       -0.4087560728
 C         -5.4042137954       -0.4089120706       -0.2014862716
 C         -5.1437058790       -1.7733659896       -0.3802375977
 C         -6.2583664937       -2.7756160417       -0.1188198567
 C         -7.4538005799       -2.4579115432       -1.0278253694
 C         -6.6817429662       -2.6743947365        1.3536251888
 C         -5.8265977392       -4.2192031291       -0.3908451202
 C         -3.8763610398       -2.1566782462       -0.7889046390
 C         -2.8922834924       -1.1968792715       -0.9810705545
 C         -1.5163615386       -1.2722645339       -1.3942201316
 C         -0.6690697840       -2.3244442820       -1.7018732184
 C          0.6533966988       -2.0780092327       -2.0471749577
 C          1.5485431197       -3.2451620828       -2.4394054322
 C          0.9648523384       -3.9056708015       -3.6972387935
 C          2.9851578065       -2.8138584231       -2.7465831501
 C          1.5991470256       -4.2651226132       -1.2953807379
 C          1.1066131125       -0.7565649109       -2.0492818892
 C          0.2793725918        0.3126931082       -1.7595557112
 C         -1.0441445168        0.0545968212       -1.4518618218
 C         -2.3423952557        3.0292283795        0.0775779984
 C         -2.0367153064        4.3676965464        0.1835940421
 C          1.4710157635        4.5257882741       -0.1143243529
 C          1.9222758821        3.2257597224       -0.0612290897
 H         -2.8160863365       -4.6085734502        2.0984996708
 H         -2.9224655044       -2.8883807248        1.7150093739
 H         -1.8948966124       -3.9374096229        0.7463630254
 H         -2.0879857430       -4.0915718200        4.4953859191
 H         -0.7303377656       -2.9967164908        4.7712814972
 H         -2.2530927807       -2.3746572157        4.1386280273
 H         -0.7948382734       -5.5823717331        3.0875276288
 H          0.6514478897       -4.6244687238        3.3828329612
 H          0.1563148588       -5.0060220556        1.7241115094
 H         -1.9885319852       -0.9610177548        2.4176792308
 H         -0.8284561710        1.0853099060        1.7916324290
 H          1.5661036897       -3.2641841194        1.7938038647
 H          3.9963428875       -2.8124341588        0.8237242074
 H          7.9321296911       -0.6151789903        0.5853815721
 H          8.5331381812       -2.2703587725        0.5300430312
 H          7.3836704514       -1.7871961947        1.7809785669
 H          6.0585511882       -2.1254656277       -2.2985185400
 H          7.7456659571       -2.4588699225       -1.8988280225
 H          7.1358775371       -0.8088747572       -1.8387919918
 H          5.4172276201       -3.9066059237       -0.6027337704
 H          7.1278865117       -4.1248174197       -0.2500397405
 H          6.0093107855       -3.7871255402        1.0643786057
 H          6.2786410986        0.6116317713       -0.3620402513
 H          4.4169537427        2.0878146640        0.1315266935
 H          0.8100316530        2.3995041615        3.0254715799
 H          0.0450226930        4.7502463121        2.9417549550
 H         -0.6122898642        4.8598210198       -2.8427312147
 H         -1.1093436220        2.4411268979       -3.0183271537
 H         -4.7049418099        1.6121922342       -0.2913744177
 H         -6.3904173629       -0.0930822999        0.1025565230
 H         -7.8596230562       -1.4712077891       -0.8234424647
 H         -8.2454519647       -3.1882874291       -0.8739988014
 H         -7.1504848779       -2.4920132823       -2.0722224284
 H         -7.0442365127       -1.6787984640        1.5944893763
 H         -7.4762770943       -3.3867265095        1.5655972095
 H         -5.8373014578       -2.8968287754        2.0029936596
 H         -6.6588252218       -4.8900487628       -0.1871809044
 H         -5.5366799435       -4.3506239073       -1.4307696017
 H         -4.9975768906       -4.5073954979        0.2510425742
 H         -3.6330226073       -3.1896210400       -0.9696828050
 H         -1.0557559669       -3.3315263237       -1.6723504863
 H          1.5955532892       -4.7337927525       -4.0143537380
 H          0.9081758594       -3.1839754549       -4.5095356447
 H         -0.0351651129       -4.2889632070       -3.5131727754
 H          3.0186462375       -2.1359996097       -3.5964505516
 H          3.5795704700       -3.6912290973       -2.9966919213
 H          3.4378577230       -2.3293151976       -1.8841552129
 H          2.0077467950       -3.7947335321       -0.4056255337
 H          2.2322390506       -5.1068969710       -1.5702106156
 H          0.6105438199       -4.6481665450       -1.0583207663
 H          2.1359131909       -0.5404268807       -2.2829030088
 H          0.6643661938        1.3213504079       -1.7675207505
 H         -2.8369103955        2.5185242337        0.8897493265
 H         -2.3057077510        4.9111785375        1.0775900044
 H          1.6678331113        5.1265103673       -0.9903345880
 H          2.4571496517        2.8036505179       -0.8980424542
