  114
       -158.28996778
 C         -2.2527060710       -3.7429449597        1.7543452025
 C         -1.0630783283       -3.4834522970        2.6859187622
 C         -1.5672194948       -3.2166676428        4.1116229132
 C         -0.2006120224       -4.7486238064        2.7185217150
 C         -0.2951798796       -2.2641303125        2.1973989292
 C         -0.9427781455       -1.0225348947        2.1570083419
 C         -0.2972746052        0.1451255657        1.8046107903
 C          1.0423270007        0.0715294172        1.4586878510
 C          1.6914098671       -1.1765336831        1.4042060967
 C          1.0289991923       -2.3308832652        1.7986868506
 C          3.0168366224       -0.9258284593        0.9071907071
 C          4.0978368498       -1.7555743193        0.6410043033
 C          5.2794380807       -1.2157166126        0.1579731561
 C          6.4951388123       -2.0679558892       -0.1754528757
 C          7.6593762639       -1.6559448535        0.7365800974
 C          6.8825701667       -1.8472424636       -1.6448329314
 C          6.2368150744       -3.5640106647        0.0246001440
 C          5.3566588686        0.1721625153       -0.0135348390
 C          4.3010399350        1.0214607700        0.2525353804
 C          3.1105934866        0.4647098469        0.6915923433
 N          1.9158221382        1.0662728711        1.0477336307
 C          1.6201640486        2.4252236028        1.0427149304
 C          0.9806858873        2.9980951013        2.1435994064
 C          0.5620022116        4.3105308191        2.1020645456
 C          0.7449483258        5.0693894279        0.9467466116
 C         -0.0470932161        6.3120288580        0.7864844495
 O         -0.2957256460        7.1138828035        1.6503907814
 C         -0.6859617235        6.3245775620       -0.6210905511
 O         -0.5149873995        7.1930684129       -1.4377250914
 C         -1.3609485485        5.0243186550       -0.8464275261
 C         -1.0872602914        4.3352464444       -2.0272936476
 C         -1.3568708445        2.9867465536       -2.1204522271
 C         -1.9370511620        2.3083941801       -1.0476173994
 N         -2.0616057611        0.9236063489       -1.0921679578
 C         -3.1799578788        0.1694099962       -0.7848303345
 C         -4.4519974763        0.5691577517       -0.4087560728
 C         -5.4042137954       -0.4089120706       -0.2014862716
 C         -5.1437058790       -1.7733659896       -0.3802375977
 C         -6.2583664937       -2.7756160417       -0.1188198567
 C         -7.4538005799       -2.4579115432       -1.0278253694
 C         -6.6817429662       -2.6743947365        1.3536251888
 C         -5.8265977392       -4.2192031291       -0.3908451202
 C         -3.8763610398       -2.1566782462       -0.7889046390
 C         -2.8922834924       -1.1968792715       -0.9810705545
 C         -1.5163615386       -1.2722645339       -1.3942201316
 C         -0.6690697840       -2.3244442820       -1.7018732184
 C          0.6533966988       -2.0780092327       -2.0471749577
 C          1.5485431197       -3.2451620828       -2.4394054322
 C          0.9648523384       -3.9056708015       -3.6972387935
 C          2.9851578065       -2.8138584231       -2.7465831501
 C          1.5991470256       -4.2651226132       -1.2953807379
 C          1.1066131125       -0.7565649109       -2.0492818892
 C          0.2793725918        0.3126931082       -1.7595557112
 C         -1.0441445168        0.0545968212       -1.4518618218
 C         -2.3423952557        3.0292283795        0.0775779984
 C         -2.0367153064        4.3676965464        0.1835940421
 C          1.4710157635        4.5257882741       -0.1143243529
 C          1.9222758821        3.2257597224       -0.0612290897
 H         -2.8160863365       -4.6085734502        2.0984996708
 H         -2.9224655044       -2.8883807248        1.7150093739
 H         -1.8948966124       -3.9374096229        0.7463630254
 H         -2.0879857430       -4.0915718200        4.4953859191
 H         -0.7303377656       -2.9967164908        4.7712814972
 H         -2.2530927807       -2.3746572157        4.1386280273
 H         -0.7948382734       -5.5823717331        3.0875276288
 H          0.6514478897       -4.6244687238        3.3828329612
 H          0.1563148588       -5.0060220556        1.7241115094
 H         -1.9885319852       -0.9610177548        2.4176792308
 H         -0.8284561710        1.0853099060        1.7916324290
 H          1.5661036897       -3.2641841194        1.7938038647
 H          3.9963428875       -2.8124341588        0.8237242074
 H          7.9321296911       -0.6151789903        0.5853815721
 H          8.5331381812       -2.2703587725        0.5300430312
 H          7.3836704514       -1.7871961947        1.7809785669
 H          6.0585511882       -2.1254656277       -2.2985185400
 H          7.7456659571       -2.4588699225       -1.8988280225
 H          7.1358775371       -0.8088747572       -1.8387919918
 H          5.4172276201       -3.9066059237       -0.6027337704
 H          7.1278865117       -4.1248174197       -0.2500397405
 H          6.0093107855       -3.7871255402        1.0643786057
 H          6.2786410986        0.6116317713       -0.3620402513
 H          4.4169537427        2.0878146640        0.1315266935
 H          0.8100316530        2.3995041615        3.0254715799
 H          0.0450226930        4.7502463121        2.9417549550
 H         -0.6122898642        4.8598210198       -2.8427312147
 H         -1.1093436220        2.4411268979       -3.0183271537
 H         -4.7049418099        1.6121922342       -0.2913744177
 H         -6.3904173629       -0.0930822999        0.1025565230
 H         -7.8596230562       -1.4712077891       -0.8234424647
 H         -8.2454519647       -3.1882874291       -0.8739988014
 H         -7.1504848779       -2.4920132823       -2.0722224284
 H         -7.0442365127       -1.6787984640        1.5944893763
 H         -7.4762770943       -3.3867265095        1.5655972095
 H         -5.8373014578       -2.8968287754        2.0029936596
 H         -6.6588252218       -4.8900487628       -0.1871809044
 H         -5.5366799435       -4.3506239073       -1.4307696017
 H         -4.9975768906       -4.5073954979        0.2510425742
 H         -3.6330226073       -3.1896210400       -0.9696828050
 H         -1.0557559669       -3.3315263237       -1.6723504863
 H          1.5955532892       -4.7337927525       -4.0143537380
 H          0.9081758594       -3.1839754549       -4.5095356447
 H         -0.0351651129       -4.2889632070       -3.5131727754
 H          3.0186462375       -2.1359996097       -3.5964505516
 H          3.5795704700       -3.6912290973       -2.9966919213
 H          3.4378577230       -2.3293151976       -1.8841552129
 H          2.0077467950       -3.7947335321       -0.4056255337
 H          2.2322390506       -5.1068969710       -1.5702106156
 H          0.6105438199       -4.6481665450       -1.0583207663
 H          2.1359131909       -0.5404268807       -2.2829030088
 H          0.6643661938        1.3213504079       -1.7675207505
 H         -2.8369103955        2.5185242337        0.8897493265
 H         -2.3057077510        4.9111785375        1.0775900044
 H          1.6678331113        5.1265103673       -0.9903345880
 H          2.4571496517        2.8036505179       -0.8980424542
  114
       -158.28815376
 C         -1.2999856161       -3.3237752523        3.9975067259
 C         -0.8597805531       -3.5041300278        2.5374666062
 C         -0.0027502054       -4.7703035985        2.4501545021
 C         -2.0912670743       -3.7066300476        1.6468107981
 C         -0.1064584061       -2.2570981509        2.0984876809
 C         -0.7761332436       -1.0268173616        2.0912409343
 C         -0.1510315396        0.1623581723        1.7762242168
 C          1.1938617962        0.1239533217        1.4465021396
 C          1.8750512369       -1.1066329325        1.3834343359
 C          1.2274458156       -2.2852138633        1.7267469887
 C          3.2086545067       -0.8130702907        0.9313027157
 C          4.3258688852       -1.5982654178        0.6971588841
 C          5.5093413963       -1.0148915117        0.2620456290
 C          6.7169500017       -1.9026389623       -0.0043670658
 C          7.1061741205       -2.6196193696        1.2960626540
 C          7.9358696262       -1.1187868444       -0.4983220733
 C          6.3512088118       -2.9380254170       -1.0775805142
 C          5.5478475475        0.3719619968        0.0985355325
 C          4.4512348283        1.1815778033        0.3362955773
 C          3.2687043498        0.5833110932        0.7342945068
 N          2.0482569852        1.1458701579        1.0655345678
 C          1.7117613986        2.4952808901        1.0401589755
 C          1.0562416315        3.0688644746        2.1304746457
 C          0.6035563755        4.3692133954        2.0647380120
 C          0.7681773256        5.1104209132        0.8954934013
 C         -0.0630780227        6.3230698278        0.7066054907
 O         -0.3331497906        7.1429569461        1.5464060174
 C         -0.7052508421        6.2643084521       -0.6975487662
 O         -0.5519623457        7.0999577683       -1.5512886922
 C         -1.3567573556        4.9436390398       -0.8693669695
 C         -1.0918603578        4.2190883987       -2.0306845592
 C         -1.3733073772        2.8709026732       -2.0865819496
 C         -1.9585294834        2.2274149285       -0.9952938901
 N         -2.1367600143        0.8477915633       -1.0183530516
 C         -3.2945733977        0.1533718584       -0.7128672992
 C         -4.5382473795        0.6151099906       -0.3194219460
 C         -5.5460679614       -0.3101861542       -0.1128537940
 C         -5.3596268859       -1.6816347025       -0.3026193576
 C         -6.4701788629       -2.6970945391       -0.0729842338
 C         -6.7528854256       -3.4352839668       -1.3890978167
 C         -7.7768567451       -2.0549658147        0.4008221469
 C         -6.0170398066       -3.7003672513        0.9974443278
 C         -4.1151170220       -2.1282045037       -0.7286089463
 C         -3.0845533359       -1.2249690714       -0.9323705140
 C         -1.7224837603       -1.3675986034       -1.3719148745
 C         -0.9506276800       -2.4649482060       -1.7279300901
 C          0.3760207215       -2.2890090221       -2.0844525323
 C          1.2619611943       -3.4418500075       -2.5333003272
 C          1.7170950009       -3.1810172201       -3.9764027029
 C          2.4858005710       -3.5396530129       -1.6150955911
 C          0.5366532883       -4.7901922750       -2.4991992858
 C          0.9117056400       -0.9950951776       -2.0479932682
 C          0.1611793159        0.1155035176       -1.7201346272
 C         -1.1751875511       -0.0708199706       -1.4062825732
 C         -2.3343188027        2.9784044732        0.1202578320
 C         -2.0174749228        4.3169022708        0.1883795050
 C          1.5055578774        4.5665451136       -0.1577160810
 C          1.9902841535        3.2801448399       -0.0807385436
 H         -1.8290139409       -4.2096768810        4.3425830730
 H         -0.4327967718       -3.1684018626        4.6363012782
 H         -1.9606056610       -2.4678986771        4.1060938348
 H         -0.5925443665       -5.6296758838        2.7631211864
 H          0.3305176585       -4.9457097193        1.4296301333
 H          0.8644852006       -4.7048362010        3.1030192330
 H         -2.6295870170       -4.6019503692        1.9518372015
 H         -1.7817606512       -3.8191193423        0.6114372623
 H         -2.7727747130       -2.8634257019        1.7046134721
 H         -1.8246384855       -0.9927301419        2.3455130758
 H         -0.7009338989        1.0919299231        1.7789293638
 H          1.7859427106       -3.2059463527        1.7038458487
 H          4.2606683395       -2.6620955625        0.8627609842
 H          7.3490389998       -1.8921413791        2.0678342404
 H          7.9765146459       -3.2510808949        1.1303611980
 H          6.2962549529       -3.2449656166        1.6610583033
 H          7.7184511345       -0.6018473136       -1.4302324028
 H          8.7583010378       -1.8075325361       -0.6811091875
 H          8.2650472409       -0.3953344451        0.2439006302
 H          6.0442495107       -2.4379669322       -1.9940387548
 H          7.2108387224       -3.5666208040       -1.3002415528
 H          5.5375345502       -3.5781802030       -0.7493915902
 H          6.4590417678        0.8517379625       -0.2177361090
 H          4.5324757237        2.2522914675        0.2239785321
 H          0.8995331782        2.4805381488        3.0217826646
 H          0.0742725544        4.8108235917        2.8957154185
 H         -0.6215649567        4.7183238702       -2.8644983505
 H         -1.1381375346        2.3002930156       -2.9722240515
 H         -4.7337441276        1.6686992926       -0.1877195289
 H         -6.5066472022        0.0643736134        0.1992745642
 H         -7.0536248738       -2.7279949456       -2.1592009194
 H         -7.5556667396       -4.1562724164       -1.2498725737
 H         -5.8742805821       -3.9682738052       -1.7413474545
 H         -8.1624408828       -1.3576127470       -0.3393470299
 H         -8.5260087384       -2.8296976675        0.5522165641
 H         -7.6383758215       -1.5340635832        1.3455212409
 H         -6.8059086975       -4.4241217230        1.1909722104
 H         -5.1287433030       -4.2402552166        0.6827345609
 H         -5.7897562893       -3.1820928465        1.9266995972
 H         -3.9349667968       -3.1760083079       -0.9105657094
 H         -1.4081438073       -3.4402894745       -1.7264433330
 H          2.3350958811       -4.0039052378       -4.3297335136
 H          2.2969231703       -2.2650352422       -4.0466959752
 H          0.8543933238       -3.0903288531       -4.6331316840
 H          3.0730492022       -2.6265609693       -1.6335271202
 H          3.1232636020       -4.3642120849       -1.9290317335
 H          2.1652402231       -3.7146453704       -0.5914714267
 H          0.2056923108       -5.0308412478       -1.4912024443
 H          1.2158329091       -5.5752740291       -2.8255359290
 H         -0.3219511852       -4.7923256749       -3.1667994808
 H          1.9532149101       -0.8456981937       -2.2889870871
 H          0.6092377581        1.0981426449       -1.7021494175
 H         -2.8212283532        2.4920056917        0.9517168774
 H         -2.2714705521        4.8846862099        1.0715678871
 H          1.6836653503        5.1556182470       -1.0454764728
 H          2.5329591177        2.8529577517       -0.9101866644
