107
 energy: -133.553496023316 gnorm: 0.000072491783 xtb: 6.7.1 (edcfbbe)
C           -4.60941831582062       -2.22802834263845        0.27062282103262
C           -3.49324385840539       -3.27016492549530        0.15021227969021
C           -3.48605163311145       -3.78926379958500       -1.29912377031518
C           -3.82899563058945       -4.42943106374050        1.10211846865890
C           -2.11610968831898       -2.71377621085187        0.45683490876946
C           -1.02486689177712       -3.56165296217281        0.50524997503369
C            0.26272351303166       -3.11467312784648        0.66761881466471
C            0.57089411585685       -1.67384306451598        0.75756191420476
C           -0.58524115499844       -0.70536089961259        1.07316580099764
C           -0.73736748254917       -0.51638044911805        2.63991790351621
C           -1.70233646232293        0.59367759849090        3.08379740059101
C            0.57151306637015       -0.30619193225948        3.42421059516115
C           -1.29981359487810       -1.83339462367137        3.21667394013945
C            0.09596021162334        0.32497308295301        0.00026014660219
C           -0.78747599617517        1.20300133624437       -1.01399872744781
C            0.02280160448975        2.33232642472723       -1.81664080225735
C            0.41270892710587        3.62199159040169       -1.07308809418509
C            1.32870409550835        1.79311703026133       -2.41133238983980
C           -0.86994967721953        2.80816281232518       -2.98305194751452
C           -1.31751327496650        0.35278534839218       -2.14341147728660
C           -2.60227869466717        0.22637601143402       -2.48328198994354
C           -3.65659138385310        0.90814752476594       -1.77958150243326
C           -3.37461829402118        1.71599264994642       -0.75339052342188
C           -4.47695574327070        2.50022406353482       -0.05076254790886
C           -5.47030800496015        1.51287468253562        0.57985851530212
C           -5.20894449013902        3.36792276673474       -1.08638650061090
C           -3.97094170643786        3.42993283960262        1.05756098510351
C           -1.96919712796025        1.84599024076937       -0.23158377717696
C            1.07446384583629        1.18829482804192        0.77103894426518
C            0.62061882872594        2.27084778470983        1.52113880549656
C            1.43232058294856        3.00007293755162        2.37208632863662
C            2.75523296848755        2.62698943206264        2.53205910451530
C            3.25274147957763        1.58731715758986        1.77968250256590
C            2.45043551159801        0.89792833142313        0.85997155586196
N            3.04448087263029       -0.04844791197984        0.04683191909134
C            4.45446660529663       -0.19410850494462        0.03209498904878
C            5.01358941298838       -1.41196555348273        0.40257879043334
C            6.38578814274092       -1.57784955202736        0.37859110572339
C            7.20708702800401       -0.53392720595383       -0.01505109320997
C            6.65109751827876        0.67810235021949       -0.39066637269492
C            5.27964761148654        0.85106191234213       -0.37139554568143
C            2.31291417067230       -0.75758402168375       -0.88561394273413
C            2.94232799206272       -1.28500412254789       -1.98910941901897
C            2.25975499310346       -2.04285755930609       -2.93326132096816
C            0.89491060437302       -2.28348393436887       -2.73473169157645
C            0.22296433749316       -1.74971232649557       -1.68278416422599
C            0.86219647754549       -0.93759893543464       -0.60498409238965
C           -1.93462217127470       -1.22698296934785        0.53349419608800
H           -5.55932588617100       -2.68422602544678       -0.00194094499351
H           -4.43791984266675       -1.38466380460642       -0.39270871969960
H           -4.70016561493678       -1.86434226308318        1.29217035418225
H           -2.70924200491220       -4.53608224690762       -1.44045741278151
H           -4.44644064153832       -4.23782486448313       -1.54539252348699
H           -3.30135103042435       -2.96870528757444       -1.98961713834285
H           -4.83853480512976       -4.78757039098800        0.91077781999396
H           -3.14659400018683       -5.26394198271462        0.97276300741720
H           -3.77112298698492       -4.09931950994342        2.13723938714266
H           -1.17937559385713       -4.62769512660874        0.42009699896951
H            1.08755501392019       -3.81042688835457        0.69225667603306
H            1.42283878839670       -1.50891454181659        1.41590132401750
H           -2.66030969922876        0.54558982028923        2.57104806875381
H           -1.26910549760185        1.57858487055791        2.95294441751348
H           -1.90919299925826        0.47275321272684        4.14630769100058
H            0.31858440891772       -0.13374220532175        4.46929329484562
H            1.14906732832041        0.54188957620880        3.08876793718030
H            1.19887164249717       -1.19320398725047        3.39485682071171
H           -1.30944643094047       -1.76703600397332        4.30333525835360
H           -0.67664898996452       -2.67731536691051        2.93801732127586
H           -2.31433950096443       -2.03641303084968        2.89110590711839
H            1.14349747556812        3.45383732754102       -0.29285429726903
H           -0.43970258244521        4.14706199282080       -0.65057939606659
H            0.86679171972140        4.29690887248680       -1.79730123741965
H            1.20435929618333        0.84105927596652       -2.91549501483329
H            1.70949379140754        2.50576247884119       -3.14145065233502
H            2.08373455027674        1.67756400422710       -1.64119827949739
H           -1.87401225339391        3.04099348465224       -2.63894304220959
H           -0.94234799704991        2.06366387183255       -3.76962515035927
H           -0.44725131105377        3.70862319410871       -3.42459759102478
H           -0.57436414506063       -0.09361071799678       -2.77932607047806
H           -2.87614787479842       -0.37093144881426       -3.34217282409059
H           -4.66246092449348        0.78194729308000       -2.15066804278556
H           -6.28623959890866        2.05191615222789        1.05671793273365
H           -4.97488699075401        0.90647245254487        1.33496615797307
H           -5.89162484211020        0.84747714059475       -0.16798279160161
H           -5.98448541719906        3.95772633672166       -0.60212322565555
H           -4.51088810726991        4.04846437523407       -1.56996312521610
H           -5.67541106430766        2.75795979836447       -1.85426199033811
H           -3.32367478340089        4.20835861298372        0.65997517480946
H           -3.43596911402762        2.88408369912519        1.82987274192513
H           -4.82193264292658        3.91994234079879        1.52703012970441
H           -1.77813610450965        2.90999045214883       -0.11555222181515
H           -1.98540351466036        1.41383431158540        0.76503623898177
H           -0.40207016552195        2.57859787697281        1.43196499906787
H            1.02408669056211        3.83478844057972        2.92103207758424
H            3.39687275214411        3.14376854780533        3.22942914833247
H            4.28399084723323        1.29429625189098        1.90014562726265
H            4.36398428942089       -2.22150766444038        0.70087352284827
H            6.81591090662491       -2.52441098772267        0.67015262859543
H            8.27843578318972       -0.66553868331945       -0.03264503217713
H            7.28791330496873        1.49124116458401       -0.70610101299885
H            4.83958867019695        1.79191518834399       -0.66848699486606
H            3.99693364742837       -1.09879795769315       -2.13156939071129
H            2.77744992328499       -2.44550575260919       -3.78825396124187
H            0.35897424923691       -2.90512464790685       -3.43850977087939
H           -0.80239104627761       -2.03273774634421       -1.54285348574638
H           -2.09241211740228       -0.83528423181036       -0.46910330244475
H           -2.74220005841442       -0.80793709029073        1.13067593001010
