107
 energy: -133.597453808339 gnorm: 0.000046363775 xtb: 6.7.1 (edcfbbe)
C           -4.60760610976368       -2.20145512018858        0.11683457467732
C           -3.50324857805817       -3.24424190923157       -0.08455044562237
C           -3.38656273630381       -3.53922062028257       -1.58843369675865
C           -3.93310140315399       -4.52233824707907        0.65028677227717
C           -2.13922818476085       -2.77679507439031        0.40661509481461
C           -1.13833290282796       -3.64378555676052        0.59108279149332
C            0.18130184168432       -3.20574083378123        0.96968776613818
C            0.46235727701107       -1.91764166111136        1.15490034811816
C           -0.56330771110683       -0.80308426194646        1.10405193479319
C           -0.77786856890456       -0.51018251590331        2.67458658278302
C           -1.72790975552645        0.62968014039851        3.07652916659287
C            0.53208554872047       -0.32470530147308        3.46486075337495
C           -1.42453090996196       -1.76724109962042        3.30698601746492
C            0.14334138452814        0.23414168674043        0.00757756506994
C           -0.79597171013328        1.14786653100922       -0.97808307279703
C           -0.00304394237082        2.30112818274267       -1.77540093520464
C            0.46678076997505        3.54434316836022       -0.99774864456117
C            1.25252833665002        1.78994703534123       -2.49494595733529
C           -0.96037174566595        2.84935770332419       -2.85752253212228
C           -1.36396297587630        0.34067909795278       -2.12396081312149
C           -2.65547685211426        0.25119793094216       -2.44780676277647
C           -3.68826026975785        0.93010368873177       -1.71047579014559
C           -3.37159023663197        1.70990479130788       -0.67332348182249
C           -4.44522871844362        2.50266027369687        0.06359998156145
C           -5.41586641869174        1.52041620467560        0.73649889916149
C           -5.21647044196719        3.36517491904324       -0.94779742403987
C           -3.89639911426547        3.44213701335535        1.14292798238622
C           -1.95589275695784        1.78731622136746       -0.16621562813535
C            1.09716698838808        1.14339591117522        0.76513866857777
C            0.62490313300272        2.19140052868165        1.55057840457727
C            1.43719997489724        2.97279248641518        2.35179394145369
C            2.79454549581409        2.71645400033054        2.39603885653614
C            3.31171756247730        1.72854117088966        1.58812076287618
C            2.49070301791580        0.96314362483586        0.75120422373795
N            3.08778400387463        0.05218172414335       -0.09702497721071
C            4.50419072143647       -0.07402027646510       -0.10304628445290
C            5.10738006527477       -1.11668340508878        0.58911315848576
C            6.48500554249178       -1.24124963536010        0.58258659547667
C            7.26259869343866       -0.32794323261530       -0.10993966304352
C            6.66135551743798        0.71172509117756       -0.79997255572206
C            5.28414398883132        0.84086755972138       -0.80000137969820
C            2.33658079222416       -0.74880842800228       -0.93899417081129
C            3.01283549595509       -1.58222400115322       -1.83549963351049
C            2.33348575809993       -2.48284577753667       -2.62321587910506
C            0.96091125978981       -2.58101488803991       -2.48944176149589
C            0.29296136174303       -1.72673567587622       -1.63475339858232
C            0.93595574325842       -0.74688041677961       -0.87638548305987
C           -1.92693873407861       -1.29322328294911        0.55536968150878
H           -5.54926588489694       -2.59617170616982       -0.26076087396645
H           -4.39186605800596       -1.28161199959999       -0.41903345756806
H           -4.74329796486219       -1.97540180926542        1.17259874579354
H           -2.60357309105527       -4.27023795166638       -1.77499751958563
H           -4.32668133182526       -3.93118589611616       -1.97176077946339
H           -3.14502861349999       -2.63013896924624       -2.13502433006464
H           -4.95435376142910       -4.78203440913506        0.37878637836323
H           -3.29747966552631       -5.36453277472565        0.39436011836679
H           -3.88947173730186       -4.37331403097251        1.72701836620972
H           -1.27581203964644       -4.70455833284613        0.45157401160862
H            0.95306151390932       -3.95681068818365        1.06519906039529
H            1.46000257375290       -1.61898346420710        1.43544612129780
H           -2.67476416564908        0.59108174638557        2.54233233215721
H           -1.28059804999512        1.60873606658358        2.96586418042614
H           -1.96705491809127        0.51408465790325        4.13341279329232
H            0.29097371582297        0.02945845767901        4.46590730373816
H            1.20933051853160        0.39008913385348        3.01959211253498
H            1.05202362954927       -1.27277521590742        3.57423239892059
H           -1.40962301839219       -1.65423226846803        4.38979692563465
H           -0.88016884647428       -2.67202446022679        3.06322277855478
H           -2.45948764475036       -1.90164273021667        3.00859885365901
H            1.30479558472536        3.33709880424414       -0.34491194402863
H           -0.31939406008711        4.01754011846202       -0.41710390048269
H            0.80536678687551        4.28242281170643       -1.72379793621398
H            1.08616423517139        0.87360514827263       -3.05126856039769
H            1.58252032393838        2.54853443434566       -3.20379634490935
H            2.06250730364279        1.62512321859846       -1.79338186650276
H           -1.93390362772421        3.09063079763089       -2.44102466320773
H           -1.10259936526369        2.14145189824262       -3.66804838297613
H           -0.54511714155877        3.75777922850948       -3.28964969807060
H           -0.64973313766479       -0.09495928864939       -2.80112862275844
H           -2.95202693559392       -0.30633688739442       -3.32610346591107
H           -4.70125643955595        0.83200500549383       -2.07003073288732
H           -6.21119356684338        2.06336172759675        1.24285419829100
H           -4.89448042398850        0.91400891614309        1.47399926625586
H           -5.86701259341154        0.85438667095640        0.00657407337498
H           -5.96463562295455        3.96591413621121       -0.43476381130952
H           -4.53607679344495        4.03541878764250       -1.46938780824128
H           -5.72340383494480        2.75264662713702       -1.68728727946506
H           -3.25716034833626        4.20993645089380        0.71255330209916
H           -3.34114478853421        2.90341051214328        1.90540766733448
H           -4.72806232306706        3.94518517669696        1.63291293388897
H           -1.74037072052475        2.84166496222998       -0.01304922337294
H           -1.97470280582352        1.31601689660042        0.80976218641825
H           -0.41450885185492        2.44007537378623        1.51915622017836
H            1.00671450357843        3.76953189151298        2.93910892777517
H            3.44898032036258        3.28821947445373        3.03641822804584
H            4.37405014421811        1.53983985783935        1.59791063296624
H            4.49038377620889       -1.82437655614417        1.12302987590557
H            6.95265309338696       -2.05216330393773        1.12092859226701
H            8.33776026847878       -0.42669476154233       -0.11253433380619
H            7.26639440308399        1.42331947692991       -1.34191732785673
H            4.80542481593093        1.64790300635110       -1.33525298400018
H            4.08820328710281       -1.52239407236538       -1.90248317786330
H            2.87342706086884       -3.11589632871473       -3.31129750660580
H            0.40377668855729       -3.31716341567285       -3.04879202225966
H           -0.76477378673036       -1.87350299816761       -1.53579886928634
H           -2.10974832178799       -0.85469952789280       -0.42083956662644
H           -2.72208297625292       -0.90472379821538        1.18909339833526
