107
 energy: -133.553557387549 gnorm: 0.000147884517 xtb: 6.7.1 (edcfbbe)
C           -3.70987353212679       -4.59861565990870        0.86609038394279
C           -3.42528978909029       -3.35514809281960        0.00870006104706
C           -4.55144614036659       -2.34603919950524        0.25939502738762
C           -3.46323582208795       -3.74538808569561       -1.47995416416966
C           -2.04558307144498       -2.80470535002746        0.31435179793458
C           -0.93804850976816       -3.62988437782769        0.25671713769871
C            0.34603841806121       -3.16908431238441        0.41392504408566
C            0.63227495939266       -1.73458138802050        0.61733755399444
C           -0.53202546355485       -0.82049353074357        1.04353700280052
C           -0.63273623582345       -0.76361403549050        2.62499473073513
C           -1.61129695743239        0.27592129613163        3.18991221710763
C            0.69602348377470       -0.57839436200158        3.38183891858337
C           -1.13905527445128       -2.13958565624459        3.10827288630565
C            0.09067132217877        0.30902014487441        0.03647677250747
C           -0.84000357533418        1.23862133724186       -0.88989106531059
C           -0.08675780924271        2.46284307899321       -1.60361016448097
C            0.23335956364396        3.71356305575783       -0.76657127385763
C            1.24445729036240        2.03479626469809       -2.23191924867377
C           -1.00116751698201        2.97935837425451       -2.73565274758639
C           -1.33904841060336        0.45802476681501       -2.08077233838596
C           -2.61921218973375        0.29011499214019       -2.41768184724260
C           -3.69774783373203        0.89415247018195       -1.67833349536022
C           -3.44386886465187        1.64855963330124       -0.60580815148309
C           -4.51746960334557        2.46079513319952        0.10281057016972
C           -4.37479373994428        2.39576535013697        1.62850268175754
C           -5.92855950535347        1.97324346577791       -0.24822631878524
C           -4.38927854978228        3.92383080602082       -0.35351659278933
C           -2.04474330606753        1.75787474462014       -0.05011003404645
C            1.06281219203752        1.13845977933316        0.84804229853424
C            0.59142462540342        2.14203633078006        1.69006603531825
C            1.40012629152437        2.83091755868168        2.57702746316376
C            2.73882342477874        2.49399144220591        2.67366795469063
C            3.25146859692641        1.53259110670137        1.83204955563078
C            2.44830647841317        0.88626483882361        0.88258975392370
N            3.04643256291120        0.02022717217050       -0.01276535799119
C            4.45851330844330       -0.09306383893609       -0.06368452273977
C            5.04868516361804       -1.32292066519918        0.20530075601466
C            6.42317503443312       -1.45748886559510        0.14580419733889
C            7.21611183747500       -0.36991805114045       -0.18251998194557
C            6.62917132562540        0.85445214274080       -0.45739657716712
C            5.25506334961151        0.99637791258325       -0.40218970864471
C            2.31174944171515       -0.63719975902854       -0.98035136822057
C            2.92895033868050       -1.06313978628438       -2.13336664669597
C            2.24536306422317       -1.76979088728812       -3.11619034734161
C            0.89225101869345       -2.06294129537454       -2.90885155607714
C            0.22947817677005       -1.62481068606869       -1.80771228621352
C            0.87330073982629       -0.88034913628507       -0.68455184497047
C           -1.88741827137903       -1.32630697354930        0.50486899047327
H           -4.71971058110729       -4.95771397275720        0.67813615045121
H           -3.62071947828952       -4.35903004904574        1.92366982439389
H           -3.01918804839323       -5.40550139043288        0.64091535698611
H           -4.42064229220007       -1.44660927646988       -0.33722524016942
H           -5.50421443367755       -2.79576185006597       -0.01429082566745
H           -4.60681494968327       -2.07065916749590        1.31098833907298
H           -2.68147851979984       -4.46372431842419       -1.71245321068545
H           -4.42543087738841       -4.18706419141258       -1.73146835278518
H           -3.31472113471146       -2.86466103268683       -2.10151830777255
H           -1.07461795820574       -4.68848194446620        0.08824034467829
H            1.18388256761512       -3.84689585836868        0.35285322985615
H            1.49913838804413       -1.60985866956380        1.26485736668065
H           -2.59021003813163        0.22467004462156        2.72183137744275
H           -1.22393312169112        1.28385701762111        3.10481945549095
H           -1.75949499012527        0.07706116377541        4.25028077390592
H            1.35189080924384       -1.43544838909272        3.25334468156642
H            0.47424988438388       -0.50947513399456        4.44577139596764
H            1.23260199312883        0.31700018374856        3.10694218910339
H           -1.12101559390796       -2.15995846475672        4.19660210574612
H           -0.49919222176255       -2.93879101418200        2.74738727364770
H           -2.15554594252853       -2.34836312037831        2.79268146879920
H            0.95541424520475        3.52458080946631        0.01692497059584
H           -0.65083142334901        4.17106048579226       -0.33092946751844
H            0.67071543862085        4.45498893483121       -1.43373448050758
H            1.16767361754634        1.11375169911597       -2.79936808023978
H            1.58495794311360        2.81409293562882       -2.91218268859088
H            2.00708531092038        1.90772501366427       -1.47106195368328
H           -2.01445445420403        3.13751987356138       -2.37748124563349
H           -1.03690143193091        2.29345980521741       -3.57620633858608
H           -0.62248284703291        3.92983808801027       -3.10676480439609
H           -0.58126609766283        0.10444628888514       -2.75625975395540
H           -2.87276456106028       -0.25689149129968       -3.31548087016472
H           -4.69029085233716        0.77199137539264       -2.07933130931221
H           -5.16701946908563        2.97772882462747        2.09515553742781
H           -3.42523602674197        2.79800643534952        1.96851521505934
H           -4.46693060680268        1.36812445767046        1.97292309479662
H           -6.66070781753795        2.51365360363560        0.34819372028636
H           -6.15963965867645        2.15058856398821       -1.29511374779758
H           -6.03386703722270        0.91139442334225       -0.03737086161107
H           -4.46762113793229        3.99064865297487       -1.43672177419098
H           -3.43631713757334        4.35189696261080       -0.05186845550620
H           -5.18287400761402        4.52347005761314        0.08711757741570
H           -1.88613666772290        2.80583535508591        0.19555700904910
H           -2.05248425554785        1.21123202300489        0.88901681640191
H           -0.44520210355705        2.41282172894737        1.64759207282445
H            0.97955389765770        3.60495742709638        3.20059141312897
H            3.38133330084488        2.97886209411490        3.39284253815692
H            4.29484586613853        1.26846733095430        1.90563269873290
H            4.42096970601402       -2.16602089574335        0.45335404781669
H            6.87734048003970       -2.41368563718297        0.35896075020981
H            8.28938864176916       -0.47697184882941       -0.22761751853727
H            7.24372498225695        1.70203965603129       -0.72230640591551
H            4.79107008311625        1.94696414580406       -0.62172940127958
H            3.97442899119811       -0.83640107752247       -2.28423433430114
H            2.75447519422572       -2.09400732022785       -4.00889654813282
H            0.35745499476007       -2.64580154072749       -3.64578407262274
H           -0.78562727151371       -1.94298402447553       -1.66777274643953
H           -2.08526900290073       -0.86155165636792       -0.45862919822365
H           -2.68247360915760       -0.97491314370112        1.15955154431393
