107
 energy: -133.574737490153 gnorm: 0.000072153312 xtb: 6.7.1 (edcfbbe)
C           -4.73741032856932       -1.15502096760757        1.74380652651707
C           -4.97262285480412        0.25422806515144        1.18520551378469
C           -5.59083734870101        1.09295873835387        2.31104995680310
C           -5.99810655587487        0.16608890602891        0.04279424760212
C           -3.68947754791405        0.88054454448017        0.65175822808857
C           -3.37275921028736        2.15897987018072        0.87692433955189
C           -2.18764789568825        2.75919281858910        0.31662589381322
C           -1.36848131427992        2.07787616061627       -0.47971191794010
C           -1.59781128074889        0.64830829707528       -0.92514109588181
C           -2.07979546652864        0.82382362221462       -2.44631342474776
C           -2.28019161751735       -0.48258491974865       -3.23516121194380
C           -1.24089116489106        1.80457860369060       -3.28868469484788
C           -3.47255316274991        1.50392175614300       -2.42875257124890
C           -0.17996724377275       -0.01582602426082       -0.41949350095098
C            0.18267819879557       -1.63656364747250       -0.23168372151862
C           -0.65129983448301       -2.75509338869631        0.57320824353908
C           -1.03185610002806       -2.44092233329156        2.02939283530175
C           -1.91109594800688       -3.24521138104284       -0.17160249450948
C            0.22458390857828       -4.02707130611058        0.68444703683330
C            0.25399150669867       -2.28008943884346       -1.58842415010550
C            1.32855950360931       -2.89979901170535       -2.07449099182034
C            2.58248170786286       -2.94636028947746       -1.36457442967208
C            2.72032953938669       -2.36901806427328       -0.16936541270707
C            4.01759870950845       -2.39006391011851        0.62494742907119
C            3.84737696915130       -3.26550174036058        1.87632058819200
C            4.40437009629310       -0.96623784224479        1.05154636159782
C            5.18058120898711       -2.96131359416758       -0.19400176840267
C            1.58990535172195       -1.57977838233839        0.44041849439461
C            0.94042209437581        0.43984170159813       -1.37530308015197
C            1.01537449302422       -0.04515397860486       -2.67722035359758
C            2.05002467580664        0.23451955462623       -3.55191294464861
C            3.07664763212226        1.06406510004839       -3.14924298378875
C            3.02044738144681        1.61078952686327       -1.88837179839287
C            1.97488320144099        1.31398498297888       -1.00656102483663
N            2.02110981333790        1.89224934884913        0.24755673065113
C            2.88175490076142        3.00873161264462        0.45431023915459
C            2.46111809873750        4.27019982826565        0.05300786867971
C            3.28511013939122        5.36535739801041        0.24065597289409
C            4.52857863918150        5.20645215762390        0.82877448471365
C            4.94799722371802        3.94914002836846        1.23074498932748
C            4.12919461710837        2.84940732243446        1.04561546620550
C            1.09209508484885        1.56415984228758        1.21766450771982
C            1.25457327252481        2.16033929022818        2.47206805968177
C            0.37048889836815        1.93580184860474        3.50101283460869
C           -0.70871539707689        1.11228244996217        3.25942766852355
C           -0.85689577806989        0.51556777943166        2.02138288977086
C            0.02431166515148        0.68200493578336        0.95628271554624
C           -2.79667445276858       -0.00592648715335       -0.18672109356251
H           -4.36866842654797       -1.83715259647708        0.98357404426814
H           -5.67484041034791       -1.55875406502422        2.12193467652302
H           -4.03186498075138       -1.12206711327531        2.57170643162881
H           -4.86435864891315        1.27515149623433        3.09950363241625
H           -5.95547153749699        2.04652233190058        1.93888560505469
H           -6.43667562246525        0.56042063520598        2.74150310727237
H           -6.14163204032790        1.14260455280083       -0.41432402996396
H           -5.67684058149413       -0.53494109106575       -0.72416573256149
H           -6.95549640832288       -0.17794684887873        0.42892246441614
H           -3.99314192912589        2.80276011768715        1.47782798652759
H           -1.97486370439266        3.78638424229898        0.57846372572227
H           -0.49243737255444        2.55331831292591       -0.89296531876898
H           -3.07845146570460       -0.34083564278651       -3.96273164315643
H           -2.57050912646268       -1.31088022947950       -2.59494132134078
H           -1.40040417997495       -0.77369021736128       -3.79850736005265
H           -1.43809286924455        2.82824087113426       -2.97904204878414
H           -1.54375523411783        1.71244018451400       -4.33068316504383
H           -0.17495241585462        1.63464557526880       -3.23756782783732
H           -4.27537694704601        0.83401000454337       -2.14299818151836
H           -3.69405011570933        1.85500947585940       -3.43540467494072
H           -3.48961030010684        2.36263710689797       -1.76664454142454
H           -2.01302841871169       -1.98860699740533        2.11288386764439
H           -0.30686414721887       -1.79754557597636        2.51829041484860
H           -1.07691482813971       -3.37333218095982        2.59076114635964
H           -1.64366810658390       -3.97157733218083       -0.93566905420069
H           -2.57033599742067       -3.74645146015901        0.53585040931836
H           -2.46952037883203       -2.45305822283491       -0.65143885040358
H            0.64340383588772       -4.32422997896980       -0.27003985304770
H           -0.40492870892467       -4.84275849002958        1.03798172844011
H            1.03544473355384       -3.91053806596620        1.39433378649028
H           -0.66887511626998       -2.30643893717908       -2.14105199587114
H            1.28472009881410       -3.38991432528506       -3.03788275214749
H            3.38513554160076       -3.48277518519106       -1.84242905295390
H            4.78993391929356       -3.32865035466809        2.41646388250211
H            3.54511155777615       -4.27212805253169        1.59489792194751
H            3.10192607080045       -2.85333585739889        2.55215407112548
H            5.39291659882136       -0.97337925695725        1.50778398398977
H            4.43056062254494       -0.31366332416814        0.18043039385938
H            3.70263969308574       -0.56432404735012        1.77859994656265
H            6.09854069984559       -2.91058740444629        0.38849399677929
H            5.32439542155865       -2.38986194309645       -1.10784928519594
H            5.00597098789781       -4.00332162093278       -0.44946917701922
H            1.48935160729011       -1.84985306615759        1.49193885601028
H            1.95102275864112       -0.55725023052704        0.44884128981143
H            0.22447172811429       -0.65576504377298       -3.05228128836204
H            2.03940965237057       -0.19286100254751       -4.54292256857405
H            3.90296665779918        1.29327293408956       -3.80509329910815
H            3.80547504323341        2.27543705391978       -1.56177385143858
H            1.48867338142802        4.38348183967678       -0.40338195655653
H            2.95497626418879        6.34477788061408       -0.07214451228020
H            5.17079389582521        6.06205341581327        0.97467009117316
H            5.91714702985624        3.82296223698999        1.69027219892953
H            4.44929968554141        1.86708680164737        1.35798851604404
H            2.09210596263111        2.82141735282958        2.63087015271232
H            0.51822306112500        2.40720797573950        4.46089877824019
H           -1.44634931192664        0.92784122811814        4.02601528846138
H           -1.74111437447818       -0.06534073521002        1.90868010032968
H           -2.41825787938923       -0.79963577965762        0.44396201605239
H           -3.43476195391826       -0.50408773433418       -0.91619862609944
