  107
       -133.59743655
 C         -4.6027350000       -2.2041206959        0.0895782880
 C         -3.4968712671       -3.2485976204       -0.0934668907
 C         -3.3686653568       -3.5577965544       -1.5935878810
 C         -3.9325395944       -4.5197590598        0.6500409178
 C         -2.1362978650       -2.7775081341        0.4039473595
 C         -1.1347678915       -3.6429105405        0.5926600050
 C          0.1830531649       -3.2027566441        0.9749940109
 C          0.4618621643       -1.9139685700        1.1588330965
 C         -0.5653289469       -0.8009771477        1.1049983916
 C         -0.7814414595       -0.5059952833        2.6748799801
 C         -1.7316647690        0.6342298388        3.0755313178
 C          0.5287542604       -0.3204498825        3.4652354841
 C         -1.4295757697       -1.7616752999        3.3086453981
 C          0.1415362285        0.2350539446        0.0075045815
 C         -0.7973103713        1.1480605114       -0.9786942287
 C         -0.0038501305        2.3001510321       -1.7770152409
 C          0.4739380293        3.5401493286       -0.9989715597
 C          1.2470359422        1.7862873502       -2.5029444044
 C         -0.9644051302        2.8529839258       -2.8538826206
 C         -1.3679206870        0.3405869803       -2.1231175715
 C         -2.6600126230        0.2530883124       -2.4453230678
 C         -3.6910644452        0.9343429850       -1.7075764866
 C         -3.3717995644        1.7145529712       -0.6715746473
 C         -4.4426145281        2.5071216512        0.0694954065
 C         -5.4026418310        1.5232332168        0.7557624499
 C         -5.2266856683        3.3614329953       -0.9389840791
 C         -3.8883570124        3.4547897425        1.1391607135
 C         -1.9554403778        1.7894603947       -0.1662170328
 C          1.0955091781        1.1450642289        0.7640459319
 C          0.6232005927        2.1928212895        1.5497976569
 C          1.4353806145        2.9748236641        2.3503541204
 C          2.7928230030        2.7190350190        2.3941052407
 C          3.3100405589        1.7310914828        1.5862358340
 C          2.4891553306        0.9654909202        0.7493694965
 N          3.0861771677        0.0540298393       -0.0984657615
 C          4.5021532399       -0.0751974781       -0.1025939019
 C          5.1013683852       -1.1268811807        0.5794038878
 C          6.4785872299       -1.2556089817        0.5732705089
 C          7.2599245871       -0.3372281985       -0.1082676812
 C          6.6627584482        0.7118485007       -0.7875363791
 C          5.2859336551        0.8449388646       -0.7883288632
 C          2.3345723573       -0.7484548451       -0.9387596840
 C          3.0103670465       -1.5822644131       -1.8352699047
 C          2.3308389583       -2.4842904688       -2.6212250725
 C          0.9583947526       -2.5827759951       -2.4865268454
 C          0.2907535714       -1.7273450799       -1.6327555452
 C          0.9339786895       -0.7468153806       -0.8755163525
 C         -1.9278726210       -1.2936589500        0.5554683077
 H         -5.5407367348       -2.6014845955       -0.2943633950
 H         -4.3816507313       -1.2880688118       -0.4505934601
 H         -4.7487200494       -1.9702113483        1.1422136520
 H         -2.5838738288       -4.2900256592       -1.7674269796
 H         -4.3056182695       -3.9540118324       -1.9803887953
 H         -3.1234707156       -2.6537988456       -2.1470308571
 H         -4.9509881474       -4.7831833797        0.3716204052
 H         -3.2936805809       -5.3638105279        0.4086762524
 H         -3.8991103101       -4.3599445177        1.7255902251
 H         -1.2701716388       -4.7039126487        0.4525329744
 H          0.9554907226       -3.9527009733        1.0738100536
 H          1.4584626848       -1.6135263130        1.4411761815
 H         -2.6774287629        0.5963064386        2.5393504646
 H         -1.2838731270        1.6132626979        2.9665199096
 H         -1.9729967545        0.5179565078        4.1318758934
 H          0.2893439142        0.0488532334        4.4610905210
 H          1.2127436328        0.3825259653        3.0116775456
 H          1.0406901838       -1.2713602398        3.5873466395
 H         -1.4077922064       -1.6505794874        4.3915615943
 H         -0.8909613757       -2.6685397688        3.0599756814
 H         -2.4670804331       -1.8906777825        3.0162365558
 H          1.3179148129        3.3298147994       -0.3550713637
 H         -0.3057160843        4.0114720536       -0.4086119410
 H          0.8060541209        4.2811174528       -1.7248120199
 H          1.0768210873        0.8697455014       -3.0578407184
 H          1.5744814303        2.5439625799       -3.2139320754
 H          2.0606043868        1.6204918251       -1.8055466221
 H         -1.9341587158        3.0995298311       -2.4317982291
 H         -1.1151918833        2.1454067631       -3.6630970545
 H         -0.5470032793        3.7590668838       -3.2888268561
 H         -0.6553966861       -0.0970866557       -2.8007362724
 H         -2.9585434338       -0.3052632197       -3.3224337717
 H         -4.7046733760        0.8368063660       -2.0655159940
 H         -6.1937010785        2.0646549309        1.2703038483
 H         -4.8708846952        0.9198067006        1.4884896791
 H         -5.8598016101        0.8543100444        0.0319581136
 H         -5.9755443048        3.9581070319       -0.4222827830
 H         -4.5542735914        4.0353717254       -1.4662864287
 H         -5.7344496902        2.7439560256       -1.6738147583
 H         -3.2518727384        4.2196795746        0.6994298590
 H         -3.3288784554        2.9217198720        1.9024186467
 H         -4.7174050999        3.9611894958        1.6301398202
 H         -1.7377731942        2.8433457728       -0.0133082520
 H         -1.9744938869        1.3178697884        0.8095658769
 H         -0.4164933611        2.4400965786        1.5198942851
 H          1.0046140051        3.7711794391        2.9379777157
 H          3.4472347679        3.2909901230        3.0343426243
 H          4.3723630363        1.5423675413        1.5964020538
 H          4.4815219123       -1.8384944783        1.1047832222
 H          6.9430456752       -2.0735711133        1.1036636545
 H          8.3347699840       -0.4393294394       -0.1106304396
 H          7.2706462516        1.4273028651       -1.3211927247
 H          4.8103326349        1.6586891058       -1.3161846122
 H          4.0855735697       -1.5215944450       -1.9039591989
 H          2.8706257090       -3.1178061688       -3.3090007944
 H          0.4011146883       -3.3196538502       -3.0447731081
 H         -0.7669448701       -1.8737087629       -1.5334258833
 H         -2.1117793166       -0.8532837388       -0.4196693345
 H         -2.7243630001       -0.9088296125        1.1899034154
