  45
  -73.9615984859000       0.149377364561308      !
 O         -3.8468427230        2.4564125534       -0.0819193025
 S         -3.5385962927        1.2150312123       -0.7456372288
 O         -3.9047261952        1.0589553371       -2.1306186082
 C         -4.2755484234       -0.1287205409        0.1872337343
 C         -4.6040171525       -1.3050241680       -0.4643809115
 C         -5.1286565472       -2.3569811258        0.2645711557
 C         -5.3099145928       -2.2290598998        1.6345340872
 C         -4.9721661054       -1.0462523334        2.2778846543
 C         -4.4476643246        0.0089675804        1.5538897644
 C         -1.8177395963        0.8677659172       -0.5517383887
 C         -1.1079213967        1.4278184465        0.5247276655
 C          0.2209297981        1.1659693594        0.6828031883
 C          0.8870273694        0.2784140062       -0.2105909491
 N          2.2299344550        0.0263023606       -0.0668659369
 C          2.8410804588       -1.2092293895       -0.1851890893
 C          2.2735291101       -2.4574151884       -0.3822617608
 C          3.1198552350       -3.5597387019       -0.4412981053
 C          4.5004442987       -3.4102802078       -0.2929911769
 C          5.0755632506       -2.1724477153       -0.0557152253
 C          4.2486855312       -1.0544187696        0.0207905822
 C          4.4746065517        0.3262160989        0.2872790781
 C          5.6102134383        1.0851528506        0.5593635274
 C          5.4736155862        2.4561688079        0.7127467016
 C          4.2352427314        3.0859585284        0.5858656259
 C          3.0832999340        2.3481980978        0.3284124783
 C          3.2018911651        0.9734051246        0.2141822335
 C          0.1395806288       -0.3276177025       -1.2615147494
 C         -1.1819680650       -0.0330972725       -1.4252793547
 H         -4.4685067338       -1.3643015663       -1.5327012824
 H         -5.4011978773       -3.2754813680       -0.2336305818
 H         -5.7209963890       -3.0508759908        2.2015950372
 H         -5.1245743137       -0.9474712128        3.3423477792
 H         -4.1958211665        0.9482330792        2.0202891032
 H         -1.6383468222        2.0852431847        1.1947486090
 H          0.7688851688        1.5633473739        1.5234799102
 H          1.2049483030       -2.5830290941       -0.4630210149
 H          2.7024414989       -4.5420380502       -0.5931805068
 H          5.1304992196       -4.2855863566       -0.3487551185
 H          6.1419246739       -2.0729443439        0.0740675320
 H          6.5770586495        0.6131266530        0.6390566335
 H          6.3482426189        3.0558934167        0.9166442299
 H          4.1683659620        4.1580501782        0.6767812827
 H          2.1345368645        2.8445879874        0.1971059656
 H          0.6604580261       -0.9473268474       -1.9752672471
 H         -1.7541419117       -0.4329795785       -2.2467116906
  45
  -73.9615782781000       0.146217020898102      !
 O         -3.9631772141        1.5872639308       -1.8712772099
 S         -3.6235199318        0.2863901268       -1.3536221554
 O         -4.0880806179       -0.8832719705       -2.0543722618
 C         -4.1596262465        0.1912254927        0.3550153547
 C         -4.3601267421       -1.0496552794        0.9361694370
 C         -4.6862716074       -1.1215596444        2.2779753881
 C         -4.7972353100        0.0409811847        3.0287121754
 C         -4.5912261718        1.2791904584        2.4358141511
 C         -4.2648150898        1.3575532257        1.0944970591
 C         -1.8791454603        0.1795480632       -1.1119343044
 C         -1.1433597018        1.3451874759       -0.8283368860
 C          0.1819115761        1.2584926213       -0.5211759299
 C          0.8321956501       -0.0089136740       -0.4877893865
 N          2.1671682685       -0.1032810128       -0.1773160057
 C          3.0943232647       -0.9099688172       -0.8158507461
 C          2.9385441902       -1.7159363376       -1.9313621942
 C          4.0520276298       -2.4042777410       -2.4018972268
 C          5.2908159914       -2.2758637073       -1.7722662581
 C          5.4666625217       -1.4420745291       -0.6792477025
 C          4.3705246536       -0.7318911092       -0.1969297650
 C          4.1933869709        0.2296846450        0.8395707908
 C          5.0436493397        0.8085508439        1.7780609444
 C          4.5117808321        1.6955345521        2.7001639159
 C          3.1508695343        2.0062819193        2.7158289674
 C          2.2825774707        1.4504488320        1.7822440835
 C          2.8104695130        0.5929314300        0.8311129145
 C          0.0722447500       -1.1801653482       -0.7706602189
 C         -1.2596064413       -1.0811451795       -1.0448796400
 H         -4.2811914952       -1.9326459089        0.3221185941
 H         -4.8569994935       -2.0820861611        2.7409564340
 H         -5.0502273309       -0.0178782876        4.0767586906
 H         -4.6882647236        2.1815487403        3.0209273515
 H         -4.1141051253        2.3036939921        0.5993592031
 H         -1.6473914766        2.2944627073       -0.9108229729
 H          0.7782618485        2.1477295077       -0.3842917655
 H          1.9910839123       -1.7935769281       -2.4413372879
 H          3.9569328766       -3.0365773130       -3.2698668392
 H          6.1346104038       -2.8277157072       -2.1590315107
 H          6.4342491459       -1.3360694280       -0.2140200304
 H          6.0941492931        0.5632621594        1.7884607233
 H          5.1598316630        2.1461083085        3.4371508693
 H          2.7646516414        2.6762825587        3.4669666542
 H          1.2259753075        1.6656495130        1.8201942424
 H          0.5506755860       -2.1435048027       -0.6826399318
 H         -1.8635749998       -1.9534180635       -1.2369990106
  45
  -73.9615717499000       0.145210418850149      !
 O         -3.9506424811        2.4670459051       -0.0387187083
 S         -3.5934381445        1.2672204935       -0.7510865119
 O         -4.0137810585        1.1211901051       -2.1213295113
 C         -4.1664297559       -0.1583333124        0.1751178758
 C         -4.4622104192       -1.3293927353       -0.5021819916
 C         -4.8121281531       -2.4563400528        0.2184925446
 C         -4.8503738276       -2.4087764640        1.6049029594
 C         -4.5490697039       -1.2297947168        2.2734012117
 C         -4.1999278055       -0.0994465582        1.5582692642
 C         -1.8523330371        1.0057187586       -0.6253654674
 C         -1.1346179792        1.5783526747        0.4394094799
 C          0.1911824143        1.3046819498        0.6024100503
 C          0.8427218364        0.3848752610       -0.2682074331
 N          2.1700084048        0.0783133283       -0.0887908823
 C          2.7205645293       -1.1900321060       -0.1561885705
 C          2.0931318018       -2.4117345588       -0.3333594256
 C          2.8816774860       -3.5580463391       -0.3340309106
 C          4.2625210212       -3.4756530496       -0.1486799707
 C          4.8953922908       -2.2619754186        0.0685638115
 C          4.1269028454       -1.1010206313        0.0871435906
 C          4.4154403737        0.2741173381        0.3233061152
 C          5.5793104032        0.9829307734        0.6089956308
 C          5.5072161077        2.3619950650        0.7251376259
 C          4.3053134275        3.0492277669        0.5481536399
 C          3.1261421973        2.3635727521        0.2762948312
 C          3.1793328118        0.9817067632        0.1972659274
 C          0.0926568744       -0.2184919542       -1.3187247245
 C         -1.2238359329        0.0912426275       -1.4908298358
 H         -4.4370204757       -1.3269768654       -1.5803886659
 H         -5.0585660368       -3.3720169870       -0.2982365806
 H         -5.1203504172       -3.2908230379        2.1661948762
 H         -4.5884730329       -1.1953060165        3.3519871208
 H         -3.9733704125        0.8344867006        2.0477551740
 H         -1.6585151001        2.2517401869        1.0987678756
 H          0.7439715445        1.7123844598        1.4348457262
 H          1.0221455806       -2.4833362825       -0.4431084296
 H          2.4168930200       -4.5213936032       -0.4689688226
 H          4.8468739489       -4.3837138252       -0.1575758065
 H          5.9610710857       -2.2148997577        0.2294919546
 H          6.5188792530        0.4660908296        0.7277122058
 H          6.4040984721        2.9235294888        0.9407680086
 H          4.2906425785        4.1251716038        0.6135685246
 H          2.2058456748        2.9010123968        0.1087383138
 H          0.6085669900       -0.8554390846       -2.0210123175
 H         -1.8001830864       -0.3126645079       -2.3073599192
  45
  -73.9615282427000       0.138676621734466      !
 O         -3.9548725476        2.4607194004       -0.2040472877
 S         -3.5890606968        1.2161518111       -0.8303323896
 O         -3.9909633507        0.9798359061       -2.1933179844
 C         -4.1747999913       -0.1384046145        0.1878620363
 C         -4.3655593894       -1.3836680982       -0.3879229798
 C         -4.7291141904       -2.4496732067        0.4144080320
 C         -4.8860842308       -2.2673988734        1.7817773406
 C         -4.6893187127       -1.0150485535        2.3481110852
 C         -4.3262623756        0.0549145014        1.5508915652
 C         -1.8506233069        0.9588496873       -0.6704588695
 C         -1.1641432290        1.5047279536        0.4289589972
 C          0.1601941080        1.2392621709        0.6148221978
 C          0.8436521284        0.3585584113       -0.2718695900
 N          2.1718839291        0.0656653039       -0.0791996249
 C          2.7439888262       -1.1888458633       -0.2010045807
 C          2.1382468098       -2.4120169148       -0.4365353339
 C          2.9462281274       -3.5429481729       -0.4893381595
 C          4.3253587787       -3.4457081412       -0.2964884902
 C          4.9360481852       -2.2334330050       -0.0183175080
 C          4.1473727959       -1.0881615634        0.0533288982
 C          4.4111411012        0.2785311397        0.3576034336
 C          5.5621448225        0.9905163945        0.6842134992
 C          5.4671231526        2.3605823621        0.8699961438
 C          4.2548418283        3.0357323205        0.7214669989
 C          3.0885164025        2.3459379862        0.4071596695
 C          3.1642334531        0.9709571760        0.2584650764
 C          0.1242566607       -0.2188994162       -1.3582612785
 C         -1.1925412638        0.0780114369       -1.5484379677
 H         -4.2490507132       -1.4878694364       -1.4550038613
 H         -4.8935667771       -3.4232731004       -0.0234496527
 H         -5.1666144086       -3.1019427670        2.4067465532
 H         -4.8218779635       -0.8754716491        3.4106923204
 H         -4.1809957286        1.0435049953        1.9568346812
 H         -1.7101342726        2.1501597575        1.0981390433
 H          0.6872271135        1.6232781688        1.4747048457
 H          1.0687390946       -2.4969234165       -0.5507495716
 H          2.4988944602       -4.5067867459       -0.6711165158
 H          4.9256232127       -4.3418236413       -0.3491671438
 H          6.0006725146       -2.1750827456        0.1462020778
 H          6.5092967485        0.4831666611        0.7814489249
 H          6.3538246324        2.9246298559        1.1186418131
 H          4.2215561015        4.1066324773        0.8413855049
 H          2.1615897863        2.8778356493        0.2605294959
 H          0.6645885527       -0.8222725212       -2.0717199150
 H         -1.7463036195       -0.3049993023       -2.3903063473
  45
  -73.9615095414000       0.135959240850562      !
 O         -3.8863696097        2.4558057799       -0.1914778571
 S         -3.5481541028        1.1955372629       -0.8022884293
 O         -3.8981329920        0.9763671490       -2.1827358542
 C         -4.2574683020       -0.1251619778        0.1822297863
 C         -4.4239681516       -1.3765945174       -0.3866396654
 C         -4.9108930608       -2.4116757382        0.3903704912
 C         -5.2182336541       -2.1913426924        1.7260577217
 C         -5.0449669474       -0.9330735196        2.2858506085
 C         -4.5561579464        0.1053451224        1.5141729506
 C         -1.8255015562        0.8768919002       -0.5811394424
 C         -1.1413101967        1.4279225951        0.5165758639
 C          0.1848608446        1.1684742019        0.7018008317
 C          0.8731473101        0.2922869449       -0.1858723929
 N          2.2126686663        0.0349593223       -0.0237702623
 C          2.8160864474       -1.2001619619       -0.1813394023
 C          2.2377132008       -2.4414612559       -0.3914050076
 C          3.0775186389       -3.5441609146       -0.5038951182
 C          4.4626220176       -3.4023314472       -0.3942427353
 C          5.0485978804       -2.1736215059       -0.1371477310
 C          4.2281898908       -1.0562452629       -0.0041349416
 C          4.4645251205        0.3156901760        0.2967613333
 C          5.6101361895        1.0611120874        0.5634170018
 C          5.4840327015        2.4267736335        0.7633063530
 C          4.2452456516        3.0643101934        0.6884425528
 C          3.0843740468        2.3402574318        0.4338628807
 C          3.1932575042        0.9695300865        0.2703582006
 C          0.1505614430       -0.3037622186       -1.2603863739
 C         -1.1676693831       -0.0130216018       -1.4498509066
 H         -4.1950823974       -1.5101057450       -1.4320241321
 H         -5.0578981807       -3.3893960025       -0.0439735198
 H         -5.6002859835       -3.0005723786        2.3302828038
 H         -5.2948933940       -0.7636489163        3.3226012339
 H         -4.4231123773        1.0985246105        1.9130983975
 H         -1.6888383032        2.0750147193        1.1830214930
 H          0.7111981608        1.5578489880        1.5597745616
 H          1.1665184988       -2.5611560990       -0.4423874652
 H          2.6522297138       -4.5210825716       -0.6682030322
 H          5.0875031966       -4.2772953717       -0.4948608367
 H          6.1186263852       -2.0807059877       -0.0357972596
 H          6.5761044222        0.5823538488        0.6039060226
 H          6.3656603415        3.0166423855        0.9658723205
 H          4.1856062521        4.1328058869        0.8187903387
 H          2.1356988508        2.8453089731        0.3420936457
 H          0.6905972166       -0.9110442518       -1.9706548565
 H         -1.7196029272       -0.4014208623       -2.2903168122
  45
  -73.9614916038000       0.133402872388011      !
 O         -3.9863643806        2.4590389146       -0.0530700743
 S         -3.6080411141        1.2641988325       -0.7628683694
 O         -4.0367676481        1.1024202465       -2.1284459700
 C         -4.1336113726       -0.1693336002        0.1766506175
 C         -4.1801789711       -0.0953484728        1.5588041392
 C         -4.4863032370       -1.2310270525        2.2855710712
 C         -4.7308152691       -2.4303239367        1.6300832504
 C         -4.6796801396       -2.4928089685        0.2443269993
 C         -4.3732524475       -1.3606465634       -0.4879467194
 C         -1.8615707224        1.0357654268       -0.6504372241
 C         -1.1487101839        1.6091297495        0.4171965629
 C          0.1777837777        1.3400420286        0.5836556400
 C          0.8335433415        0.4223126859       -0.2858978701
 N          2.1549670394        0.0994286330       -0.0917791717
 C          2.6857844597       -1.1769398020       -0.1611898742
 C          2.0398022759       -2.3876525452       -0.3481117376
 C          2.8094984217       -3.5464413944       -0.3485852204
 C          4.1901853584       -3.4872598291       -0.1528526650
 C          4.8410288552       -2.2850253454        0.0741839075
 C          4.0912643406       -1.1117770677        0.0923374755
 C          4.3996329022        0.2575002124        0.3378116091
 C          5.5732082223        0.9456985014        0.6337826452
 C          5.5218295913        2.3248075645        0.7604078146
 C          4.3313041257        3.0316850995        0.5840588628
 C          3.1430308522        2.3668073885        0.3001395749
 C          3.1756353020        0.9851698971        0.2085508611
 C          0.0909886153       -0.1738271262       -1.3457460153
 C         -1.2257823879        0.1312272356       -1.5214057512
 H         -3.9971777671        0.8538789003        2.0381331300
 H         -4.5356954764       -1.1842236256        3.3634101456
 H         -4.9663120745       -3.3162119986        2.2002442890
 H         -4.8807145028       -3.4242558482       -0.2622627134
 H         -4.3389148030       -1.3705886976       -1.5657346187
 H         -1.6780245870        2.2766683267        1.0781378503
 H          0.7258774902        1.7476145458        1.4191322122
 H          0.9683953693       -2.4410868762       -0.4641658266
 H          2.3302454121       -4.5015873723       -0.4908112703
 H          4.7596925719       -4.4047127794       -0.1622300836
 H          5.9062781694       -2.2555981954        0.2417678570
 H          6.5039479294        0.4131544955        0.7531635238
 H          6.4267428612        2.8701884732        0.9846396635
 H          4.3325399452        4.1071310739        0.6589355820
 H          2.2322663606        2.9204490465        0.1332861820
 H          0.6134333589       -0.8030093307       -2.0503928926
 H         -1.7972943404       -0.2685542263       -2.3433698079
  45
  -73.9612509443000       0.103410760557402      !
 O         -4.0132058710        1.6975173343       -1.8249932935
 S         -3.6585664852        0.3762467523       -1.3746338469
 O         -4.1770823899       -0.7632705761       -2.0864242054
 C         -4.0693081293        0.2214292097        0.3632523313
 C         -4.2398807560       -1.0402032959        0.9095913721
 C         -4.4317520727       -1.1650264049        2.2729165223
 C         -4.4378264193       -0.0350489724        3.0797337891
 C         -4.2651756685        1.2243394594        2.5211974777
 C         -4.0729273616        1.3560050537        1.1585528947
 C         -1.9066724520        0.2444442346       -1.2177802069
 C         -1.1515448535        1.3941621696       -0.9182064458
 C          0.1686303695        1.2801800090       -0.6004577304
 C          0.7945828666        0.0001684299       -0.5675927433
 N          2.1152501040       -0.1209920720       -0.2098990422
 C          3.0547957858       -0.9387272700       -0.8144032275
 C          2.9315203859       -1.7422945607       -1.9359805085
 C          4.0520176514       -2.4468420524       -2.3623505127
 C          5.2672165196       -2.3368639754       -1.6846799597
 C          5.4121543379       -1.5055301630       -0.5855642604
 C          4.3084033090       -0.7803287896       -0.1457856584
 C          4.1041490189        0.1794125523        0.8880022806
 C          4.9246893819        0.7424461543        1.8616334032
 C          4.3682378433        1.6294018789        2.7693154282
 C          3.0111840440        1.9542043061        2.7363294129
 C          2.1729961964        1.4149709960        1.7662964181
 C          2.7277829040        0.5598719785        0.8283931915
 C          0.0201449667       -1.1531911721       -0.8827266334
 C         -1.3067365668       -1.0271964461       -1.1688342660
 H         -4.2405507092       -1.8966251999        0.2541421907
 H         -4.5763543040       -2.1418025001        2.7100633581
 H         -4.5814239942       -0.1358056323        4.1450929914
 H         -4.2807898274        2.1014422885        3.1509394697
 H         -3.9468573422        2.3199845522        0.6918007753
 H         -1.6388848038        2.3528370254       -0.9927203845
 H          0.7803622413        2.1566031513       -0.4488920577
 H          2.0039920948       -1.8064752812       -2.4830342829
 H          3.9817067300       -3.0783009199       -3.2333234583
 H          6.1170977275       -2.9015616779       -2.0380655283
 H          6.3621170526       -1.4134806296       -0.0825272727
 H          5.9713079277        0.4853396770        1.9099925202
 H          4.9930204463        2.0680701535        3.5330761611
 H          2.6034120995        2.6221866616        3.4778769366
 H          1.1176692690        1.6398383874        1.7673229175
 H          0.4802013562       -2.1261644994       -0.8047759883
 H         -1.9234200016       -1.8862734010       -1.3791235048
  45
  -73.9605206251000       4.774570015999877E-002 !
 O         -4.0660910783        1.8185619170       -1.7450629598
 S         -3.6929735393        0.4772357984       -1.3778496548
 O         -4.2674295567       -0.6268713610       -2.1015973899
 C         -3.9647795353        0.2470555663        0.3786546490
 C         -4.0244845775       -1.0407496528        0.8881236958
 C         -4.0693939822       -1.2241479250        2.2572710505
 C         -4.0420515350       -0.1257581019        3.1066011458
 C         -3.9856968451        1.1601032721        2.5851742679
 C         -3.9381222245        1.3505632920        1.2167590086
 C         -1.9371822980        0.3264719585       -1.3220426851
 C         -1.1595999952        1.4567433476       -1.0035256932
 C          0.1558799286        1.3114975089       -0.6818937277
 C          0.7550676963        0.0173508677       -0.6552909898
 N          2.0575134684       -0.1363226407       -0.2493277908
 C          3.0045233315       -0.9742648507       -0.8130885226
 C          2.9122641615       -1.7828002718       -1.9344887999
 C          4.0330775319       -2.5155421965       -2.3069535012
 C          5.2209219116       -2.4281241582       -1.5788518462
 C          5.3374651269       -1.5910180373       -0.4812172615
 C          4.2323791033       -0.8394756213       -0.0934603043
 C          4.0051424798        0.1264192571        0.9303525035
 C          4.7962816666        0.6748502397        1.9356678188
 C          4.2197026625        1.5697420564        2.8226985068
 C          2.8699146402        1.9142157454        2.7386883374
 C          2.0618538333        1.3901983654        1.7358658169
 C          2.6399805925        0.5310614093        0.8156816893
 C         -0.0362310604       -1.1139675072       -1.0074697386
 C         -1.3571289909       -0.9566818902       -1.3029098671
 H         -4.0537034070       -1.8725998656        0.2024839044
 H         -4.1240758303       -2.2221171324        2.6661958025
 H         -4.0682836341       -0.2722727321        4.1760912664
 H         -3.9751306362        2.0118888412        3.2488749172
 H         -3.8941241595        2.3354809722        0.7792585243
 H         -1.6291957384        2.4254804903       -1.0616368475
 H          0.7855329539        2.1727547750       -0.5169361544
 H          2.0085972398       -1.8307035616       -2.5216093088
 H          3.9854295925       -3.1527796279       -3.1753105143
 H          6.0716432957       -3.0151887945       -1.8913138953
 H          6.2669500080       -1.5153965879        0.0613824679
 H          5.8359275125        0.4006535174        2.0241413748
 H          4.8212993651        1.9978452772        3.6106024677
 H          2.4433615797        2.5856001713        3.4665286485
 H          1.0100765654        1.6284770920        1.6991762291
 H          0.4029619859       -2.0974945290       -0.9457073528
 H         -1.9868302422       -1.7992738473       -1.5393885828
