72
 energy: -111.495392099928 gnorm: 0.000072789022 xtb: 6.7.1 (edcfbbe)
C           -8.12246385713389       -0.97810412115115        0.80702822131849
C           -7.24049798889983       -0.02696703324419       -0.02441945469080
C           -8.12187973685076        0.91836944681242       -0.86310332220130
C           -6.40058465366357        0.80418797250826        0.92184232337577
C           -7.02012368684960        1.62336239354791        1.85529027083282
C           -6.29665186161187        2.39450963557527        2.74649888343421
C           -4.91098661892358        2.35251471108957        2.71951530560761
C           -4.26816431034951        1.55037308596317        1.80467263032725
C           -4.99771713507520        0.77293475015049        0.89367533203747
N           -4.32473258048886       -0.01608395918775       -0.01358863713510
C           -2.89858276254085       -0.00996086879193       -0.00904770931613
C           -2.20035814050374        0.96276266002356       -0.72032337381016
C           -0.82473499446709        0.96753236827164       -0.71406418403529
C           -0.09371819792331        0.00210444542606       -0.00065462460784
C            1.35483669669879        0.00848833923241        0.00362940737496
C            2.08093877858731        1.20289286931178       -0.15783181189728
C            3.46408602163899        1.19599076455782       -0.14232266698196
C            4.28298294172420        2.38185001199120       -0.29694715640638
C            5.66565980021278        2.22304200893749       -0.49522279042992
C            6.49335747815800        3.30533282983630       -0.65707019976310
C            5.96427534820947        4.60174252607900       -0.62176691865772
C            6.80209269413992        5.71951239289297       -0.78660698766490
N            7.48336429578517        6.63499340993386       -0.92206598344874
C            4.58934383377975        4.77579133217599       -0.41785337929171
C            3.76815144960077        3.68566636567770       -0.25903609904281
N            4.09899386905382        0.02091275270242        0.01088002747822
C            3.47394777684061       -1.15994527113622        0.16101655716180
C            4.30294581405464       -2.33812008329510        0.31966875502872
C            3.80007464298972       -3.64667120077650        0.28364661485171
C            4.63086846410256       -4.72894794099558        0.44606791449827
C            6.00383909276814       -4.54206057383726        0.65183634969235
C            6.85154431837221       -5.65182453951188        0.82008082862789
N            7.54110758461201       -6.56061595267699        0.95861986940359
C            6.52103305788225       -3.24081293068699        0.68554207052267
C            5.68380723323106       -2.16645008467943        0.52017364025262
C            2.09079918479347       -1.17921796363659        0.16919930549816
C           -0.82064058787758       -0.96960749520826        0.70838101972481
C           -2.19628425979604       -0.97666473754838        0.70641659911463
C           -4.98505069576079       -0.81046354390478       -0.92547939979128
C           -4.24298199419382       -1.58260637936304       -1.83085469355761
C           -4.87298948304883       -2.38990850399638       -2.75006016502909
C           -6.25806012857653       -2.44240503927422       -2.78718084902939
C           -6.99385880307259       -1.67644417522591       -1.90161017068783
C           -6.38739744009403       -0.85237270410257       -0.96389369029304
H           -7.49631027884949       -1.64391509939338        1.39780085465442
H           -8.76280116005012       -0.41935098122247        1.48325014951485
H           -8.75367362857719       -1.58256114854905        0.16226526805654
H           -8.75292366588644        0.35539446803458       -1.54454792837382
H           -7.49530508820302        1.58830793234501       -1.44874561708130
H           -8.76229183286560        1.51864736407916       -0.22352226139332
H           -8.09768433728004        1.66500214807340        1.89392499304800
H           -6.81030396677540        3.02112992256615        3.45887221041718
H           -4.33308822162489        2.94431940949356        3.41245755771265
H           -3.19046481511493        1.51398686895285        1.78540694032876
H           -2.75004365673879        1.70540788696043       -1.28033181818458
H           -0.30283656489909        1.71059239277347       -1.29683171174015
H            1.56180937675099        2.14035344999931       -0.26617037445488
H            6.06486728704638        1.22011292252480       -0.52822801091644
H            7.55383652631544        3.16930796989262       -0.81247255657396
H            4.18343563448252        5.77658495083337       -0.38325288975962
H            2.71510574832057        3.85046070345943       -0.08866408500049
H            2.74882433943506       -3.82145162939716        0.11215265405190
H            4.23409812984448       -5.73345393950857        0.41298917213079
H            7.57995740862881       -3.09483489956163        0.84251709764073
H            6.07378425554041       -1.15984318165729        0.55184568426717
H            1.57953383011378       -2.12133488932448        0.27457987711685
H           -0.29583649356728       -1.70822109372630        1.29419096911986
H           -2.74290256370721       -1.72405587472753        1.26310402171642
H           -3.16576198674415       -1.53802061491869       -1.80377263177028
H           -4.28555394071653       -2.97753425803311       -3.43852429516775
H           -6.76171636865515       -3.07311054734304       -3.50307653261749
H           -8.07076195303536       -1.72611903207112       -1.94824148216019
