78
 energy: -124.519737897694 gnorm: 0.000086323484 xtb: 6.7.1 (edcfbbe)
N           -1.87434866473887        6.63971101201268       -0.77677947152242
C           -2.23618702590678        5.55852807344446       -0.65927067536677
C           -2.68101264683969        4.22443197848845       -0.51190672787957
C           -2.30894124826100        3.25838643314008       -1.44793763634794
C           -2.74043841040206        1.95665505229038       -1.29964248137197
C           -3.54555749466246        1.60955144684937       -0.21698482524159
N           -3.94131380297492        0.27481637592466       -0.04796148716145
C           -3.07478381553563       -0.78935249952316        0.11981465727703
C           -1.62573193986030       -0.68260925815286        0.13814196105499
C           -0.88186858770927       -1.72559079123608       -0.41519815367177
C            0.49533040527261       -1.67866831161602       -0.42196554419549
C            1.17560689902473       -0.59087016147286        0.12536962862448
C            2.64206055479779       -0.53251597794329        0.10715069032150
C            3.30469246510886        0.66713637876082       -0.14806847433385
C            4.68296170353881        0.72470162509209       -0.17528475201730
C            5.43645352517866       -0.42042514855086        0.07044140953806
N            6.83468972849789       -0.36485540492356        0.05159624301105
C            7.66827140117463       -1.21933170260062       -0.64373449307000
C            7.34923247052700       -2.26347770490447       -1.49991399026758
C            8.38974308339232       -2.94910117067239       -2.09701566871926
C            9.71874323936500       -2.60492792498042       -1.86058351254809
C           10.04166813699514       -1.55111280656422       -1.02940046358189
C            9.01313214102307       -0.84683857170815       -0.41763568772361
C            8.98037286620280        0.28603717996176        0.46447778611576
C            9.96648692773754        1.06900322326873        1.04990012309003
C            9.58413958007878        2.09532081326298        1.89020791601115
C            8.23896227821585        2.33514169156020        2.16145505055195
C            7.23985368349941        1.56984152779614        1.59103535268219
C            7.61692763836171        0.55276020845238        0.72593354059966
C            4.78343008238755       -1.62174649661488        0.33534181111424
C            3.40485526378144       -1.67497998966439        0.34445998670538
C            0.42925029049970        0.43577722874390        0.70120607158741
C           -0.94970096234222        0.39111641184177        0.71552904542109
N           -3.71266767321891       -1.91858586413502        0.28021274222542
C           -5.03680649570262       -1.61747160086854        0.22692341497606
C           -6.13872243022456       -2.50201523014666        0.39194627502834
C           -5.94276213772587       -3.86273342603166        0.64968588270324
C           -7.01870368829891       -4.69221009896432        0.84374758014277
C           -8.30770220045508       -4.16567799480130        0.78660932635978
C           -8.51166313572653       -2.83059290147233        0.52721905791565
C           -7.43839712411951       -1.95224039686733        0.31222988390612
C           -7.62020148960722       -0.54616611166694       -0.00413769652402
C           -8.89630876657524        0.00830631986871       -0.17755345674615
C           -9.07920579335410        1.32488100095347       -0.52800016529393
C           -7.97934839527271        2.14894341702989       -0.74333110720494
C           -6.71236872187947        1.64788750728149       -0.57435209885462
C           -6.50407352652893        0.31741859174510       -0.18318243922180
C           -5.21441782285336       -0.25276812992969        0.01078537805943
C           -3.91709471835475        2.57446776893411        0.71949139875415
C           -3.48981287953302        3.87703817154665        0.57242677067332
H           -1.68640634652360        3.53621057279826       -2.28502702545794
H           -2.45734503142498        1.19970093163976       -2.01534326416312
H           -1.40903383611370       -2.56531430013129       -0.84038937064587
H            1.05479821288638       -2.48268790698387       -0.87666461832736
H            2.73178717960648        1.55837283439416       -0.35835539549715
H            5.18520113666579        1.65272374624369       -0.40418897391691
H            6.32233492009291       -2.52633911696786       -1.70488527686608
H            8.16716655599525       -3.76797280025976       -2.76526138666675
H           10.50343924587311       -3.16730608838215       -2.34438028664716
H           11.07082951226893       -1.27314742095339       -0.85899662424411
H           11.00939149332568        0.87194298246697        0.85242701433591
H           10.33491334556111        2.71775677616192        2.35385708233350
H            7.97066627195280        3.13498765116396        2.83589867344349
H            6.20131152444303        1.75217096635266        1.82295417725819
H            5.36435465275508       -2.50599500045323        0.55090466028623
H            2.91046662811466       -2.60796694498960        0.57089481315665
H            0.93729015320393        1.26634342371088        1.16893581745508
H           -1.49742384646157        1.18245755963875        1.20554128333285
H           -4.92809156519121       -4.22628584457035        0.69707589807193
H           -6.87311851600070       -5.74314553749833        1.04500845062570
H           -9.15754883803407       -4.81314480529028        0.94750261600248
H           -9.52699389275950       -2.46861238900496        0.49593528422035
H           -9.77045251247129       -0.60838296944000       -0.04590334318644
H          -10.07809568753903        1.71588240698741       -0.65242424581000
H           -8.11956610723410        3.17566996837676       -1.04714757862657
H           -5.86382205813276        2.28543913947148       -0.76671769674083
H           -4.53933814073378        2.29104943664197        1.55558186663490
H           -3.77134875330555        4.62990158858115        1.29330274193507
