78
 energy: -124.519730611614 gnorm: 0.000030833077 xtb: 6.7.1 (edcfbbe)
N           -1.96365259095819        6.63972103423354       -1.13321220558347
C           -2.33189130077375        5.56777301978620       -0.96277860787552
C           -2.78445716613147        4.24527423204839       -0.74982637830913
C           -2.40902547195434        3.22991157667113       -1.63070025646419
C           -2.84770338795176        1.93958034730616       -1.41806789636950
C           -3.66334703678947        1.65292596157484       -0.32560727473274
N           -4.06471964004392        0.33022221983158       -0.08957598261547
C           -3.20114767549716       -0.72601455755746        0.13444115286084
C           -1.75196307794630       -0.61801899582865        0.15053915090072
C           -1.00433652161772       -1.67831582179144       -0.36279552012565
C            0.37286152326247       -1.62697493321484       -0.36964146096027
C            1.04893396079100       -0.51798432172098        0.13898268982609
C            2.51512506143508       -0.45404523736127        0.12109325942362
C            3.17237845741866        0.74128184539089       -0.16677127115765
C            4.55032536815193        0.80585580882908       -0.19009161325740
C            5.30908509566035       -0.32753254462831        0.09118112382867
N            6.70703345801491       -0.26333443771383        0.07870204248634
C            7.55076224453062       -1.12927014931807       -0.58949821313043
C            7.24410750829794       -2.19673822226041       -1.42106113476391
C            8.29298175391735       -2.88983162031685       -1.99443596427836
C            9.61810147204434       -2.53063083570669       -1.75851553647068
C            9.92869872595244       -1.45426684778761       -0.95187871916496
C            8.89161048063390       -0.74198270541440       -0.36431254135438
C            8.84552163463726        0.41231718275958        0.48899282380885
C            9.82237608972945        1.21636764923251        1.06124112594779
C            9.42748127294652        2.26057952184007        1.87323688739390
C            8.07893013014326        2.49795799870571        2.12950406141547
C            7.08885349276730        1.71193552733574        1.57168286411781
C            7.47863817586271        0.67618377305508        0.73484236892323
C            4.66167702601819       -1.52479599957090        0.38627228908560
C            3.28333691715810       -1.58524838705753        0.39258224016224
C            0.29833533393809        0.52628696347243        0.67664327627244
C           -1.08037808242076        0.47817795490984        0.68951280733957
N           -3.84158630620861       -1.84375862810927        0.35264979085421
C           -5.16513991884938       -1.54243631663281        0.28248428491672
C           -6.26943301401911       -2.41397927944586        0.49401210392319
C           -6.07717038889855       -3.75941358630580        0.82454251385445
C           -7.15534828772870       -4.57419791321915        1.06325867271977
C           -8.44291314649959       -4.04794086819919        0.97800427138289
C           -8.64326443213473       -2.72819324036079        0.64716924775201
C           -7.56763297679256       -1.86564217093357        0.38517480053214
C           -7.74566207732717       -0.47799475804585       -0.00583897911060
C           -9.02019665260174        0.06988263495059       -0.20926803859459
C           -9.19931894182868        1.36641142203548       -0.62945481604324
C           -8.09713011861404        2.17480773175871       -0.88801835765233
C           -6.83158963906879        1.68006743602763       -0.69186994869742
C           -6.62718459609227        0.37187726386578       -0.22991738988770
C           -5.33916868787610       -0.19047992850822       -0.00478485066677
C           -4.03834223469202        2.66721308384157        0.55568344736191
C           -3.60403215050983        3.95851897992191        0.34410859756467
H           -1.77824355226843        3.46081749009212       -2.47583688751477
H           -2.56218129008881        1.14510925459294       -2.09085877795982
H           -1.52795467605493       -2.53483927889935       -0.75787887095340
H            0.93531433662371       -2.44506736575179       -0.79455679578451
H            2.59567619677269        1.62296152113893       -0.40500707827049
H            5.04844442467941        1.72988874850127       -0.44290585624131
H            6.22025339899330       -2.47169566438905       -1.62545188557746
H            8.08021986266819       -3.72664227221800       -2.64337693545656
H           10.40962339800879       -3.09945783894089       -2.22328106597796
H           10.95487958640276       -1.16513383485890       -0.78207391793358
H           10.86790101939375        1.02162586625177        0.87569190751918
H           10.17092912348750        2.89938023698753        2.32631358144479
H            7.80075047703737        3.31247739122607        2.78202817670572
H            6.04751536747152        1.89290431780742        1.79187897423793
H            5.24665428026819       -2.39958041040364        0.62796244171553
H            2.79349085880499       -2.51424403548157        0.64386690581419
H            0.80280340235526        1.37449774025515        1.11560954834434
H           -1.63196385080781        1.28521566921840        1.14873919536944
H           -5.06348510288590       -4.12267272504501        0.89132413029729
H           -7.01260647605010       -5.61312357510828        1.32098828997971
H           -9.29448941964591       -4.68341948458215        1.17376943663166
H           -9.65758393000382       -2.36554235071993        0.59668842697427
H           -9.89606708842577       -0.53659354561147       -0.04554272326285
H          -10.19708319805873        1.75296044038565       -0.77503731077646
H           -8.23446002929822        3.18419687238679       -1.24636338544444
H           -5.98113681546525        2.30395816419112       -0.91781114302599
H           -4.66852227271522        2.43063292667780        1.40035804343071
H           -3.88809669266044        4.74927987994035        1.02214863831726
