78
 energy: -124.439673063613 gnorm: 0.000044286782 xtb: 6.7.1 (edcfbbe)
N           -2.38089316198188        6.92541476709115       -0.77803640303097
C           -2.65760706660046        5.81616998995315       -0.66066600271861
C           -2.99545755082989        4.45832386541939       -0.51556165694666
C           -2.54816106538853        3.51668970392990       -1.45258515370882
C           -2.87213102465976        2.18922602842061       -1.30506275260113
C           -3.65912670760013        1.77229003772302       -0.22347862357208
N           -3.96770808870467        0.42050608515458       -0.07241845766316
C           -3.02387732127521       -0.62945326813480       -0.03306565880633
C           -1.62880009836280       -0.52788899340612        0.04016278266945
C           -0.86996228436053       -1.71925081749407       -0.17461654735736
C            0.48788956485073       -1.71371618757083       -0.14503697410238
C            1.22403764806249       -0.52625433823645        0.11075542124200
C            2.65965925355433       -0.50736931355860        0.10766569592269
C            3.37869259307021        0.68107323682911       -0.14061035619594
C            4.75035925159400        0.70366881602196       -0.15108843860056
C            5.48211284730323       -0.46391064285175        0.09142266755683
N            6.87598583965379       -0.44294942904565        0.08219249984504
C            7.69436544288762       -1.34208085856184       -0.57502024908031
C            7.35671947690887       -2.40455818546859       -1.40195637154970
C            8.38539915767857       -3.13511521373162       -1.96668443267520
C            9.71992813024875       -2.81589010938721       -1.72914434185810
C           10.06231144246541       -1.74023425703072       -0.93167794221592
C            9.04685916326586       -0.99291847866644       -0.35329318307980
C            9.03486918594466        0.17452500814671        0.48574107457598
C           10.03498413039370        0.95359647495904        1.04878075091453
C            9.67098974391421        2.01859343247088        1.85096364372552
C            8.33081007823937        2.29614081186395        2.10826695758218
C            7.31718788778004        1.53342549958976        1.55907266954739
C            7.67562195632010        0.48150846589469        0.72740002293129
C            4.78909985711822       -1.65306304211469        0.34296803645611
C            3.41732141557023       -1.67289870555424        0.34812081826921
C            0.46778694878254        0.63996678667101        0.39217368114265
C           -0.89317294645191        0.64747477062780        0.36833650902674
N           -3.64942993441165       -1.82172849952853        0.02359611770329
C           -4.94682945602333       -1.57065416005116        0.08578951524507
C           -6.00596860806441       -2.51269519430151        0.24175088107025
C           -5.73222422058849       -3.87355566562391        0.39583871660570
C           -6.75720015886318       -4.77064123640074        0.59603290169587
C           -8.06512441034560       -4.30440937140791        0.65364481493072
C           -8.34541200860116       -2.96225147437701        0.49442607075730
C           -7.33110394286266       -2.02339169225552        0.27113115668942
C           -7.59477912599496       -0.60948611071702        0.04633836024169
C           -8.89813358741902       -0.12168632552072       -0.05767655826195
C           -9.16975320803174        1.20416585576125       -0.32644508942162
C           -8.12332636653184        2.10014801103832       -0.53160386370574
C           -6.82686018661730        1.66824669191786       -0.42852135369830
C           -6.52110976656614        0.32604389156192       -0.11447346456290
C           -5.20729827221716       -0.16917825513395        0.00128464776795
C           -4.10851800968372        2.71339116588453        0.71197614762369
C           -3.77842196668418        4.04026933346451        0.57013527933781
H           -1.95222669671308        3.84419250513425       -2.29132111724841
H           -2.52929900900864        1.45683633713116       -2.02046589417868
H           -1.42040791572861       -2.62056870837019       -0.39120660266804
H            1.02046601484579       -2.62636897516205       -0.36454148230480
H            2.84206799125682        1.58709240430622       -0.37545664837455
H            5.27672632048464        1.61730155407055       -0.38475354245322
H            6.32622858528057       -2.64643718815953       -1.61220822502873
H            8.14810235950944       -3.96875991726203       -2.61068308310065
H           10.49500050664217       -3.41247522308362       -2.18632822985544
H           11.09646276901814       -1.47999092653044       -0.76465476343142
H           11.07417491242094        0.72586648778079        0.86623691170311
H           10.43369361101704        2.63964310653365        2.29617167461717
H            8.07711071470212        3.12258694692400        2.75522970717163
H            6.28289691606438        1.74343059557596        1.78427069052233
H            5.34612275602294       -2.54995105745662        0.57050597285535
H            2.91204531456578       -2.59495631752153        0.58923153579939
H            0.98455456330520        1.54109836653144        0.68677371066248
H           -1.41607779466857        1.54305014116139        0.66213473618229
H           -4.70094060950429       -4.18802774629417        0.36075291365734
H           -6.54992345685057       -5.82335527980852        0.71530744908131
H           -8.87535866716829       -4.99843516972546        0.82410357783813
H           -9.37597494908690       -2.65035379969560        0.55205236460472
H           -9.73300932390061       -0.79353243752777        0.05967564326674
H          -10.19288198566545        1.54115451974927       -0.39656147049304
H           -8.33150648381619        3.13081780975256       -0.77690832524459
H           -6.02492191146307        2.36231628687057       -0.61710917385384
H           -4.70412624469876        2.38229972723080        1.55020169544176
H           -4.11154058347959        4.76714968475033        1.29591604762826
