78
 energy: -124.439673559240 gnorm: 0.000083980597 xtb: 6.7.1 (edcfbbe)
N           -2.50388587938769        6.86909825287341       -0.79989047566332
C           -2.76123069251784        5.75581253604049       -0.67673014635228
C           -3.07415011656417        4.39291908791881       -0.52359876274586
C           -2.61333708114703        3.45457131544092       -1.45739860369288
C           -2.91197845157906        2.12216117265187       -1.30136239515545
C           -3.68661950202459        1.69656651503232       -0.21419569403172
N           -3.96876116088207        0.34021395768190       -0.05371001847070
C           -3.00539356087846       -0.69179046915499       -0.01354366946838
C           -1.61185553065934       -0.56458265494508        0.04860977250120
C           -0.83356510436328       -1.74342807423929       -0.16526503511599
C            0.52414633224390       -1.71376778479568       -0.14465480103570
C            1.24068347054430       -0.51229942829390        0.10083268860626
C            2.67579548437319       -0.46865410380739        0.09092399869732
C            3.37318633334702        0.73064555783257       -0.16645600686232
C            4.74424382570673        0.77710106231916       -0.18092059190862
C            5.49680806816424       -0.37616333316063        0.06613049623577
N            6.89009962004535       -0.33079167983881        0.05467123740846
C            7.72322130505825       -1.21884664418784       -0.59895314544786
C            7.40303240252920       -2.29005753139053       -1.42154776169227
C            8.44357689384202       -3.00570491704684       -1.98359831807433
C            9.77266491023694       -2.66344116026832       -1.74757911299743
C           10.09733502035110       -1.57918832265057       -0.95434754330378
C            9.06975205613171       -0.84649076397604       -0.37867486030250
C            9.03840554055572        0.32378160670896        0.45593998680260
C           10.02538546474560        1.12116413872902        1.01654166438559
C            9.64366771022112        2.18293800894385        1.81475257245482
C            8.29901748704016        2.43962062662096        2.07041221761953
C            7.29824703940232        1.65839428312550        1.52368475833289
C            7.67424279674344        0.60927569586320        0.69626084178332
C            4.82543344946915       -1.57601120719484        0.32529524374909
C            3.45423348059271       -1.61966926272344        0.33466471223143
C            0.46587833157382        0.64204097968200        0.38042351116517
C           -0.89516886996724        0.62549573739074        0.36518798994763
N           -3.60825101708500       -1.89496793570649        0.05730208456543
C           -4.90948413767832       -1.66746891071195        0.12805574667148
C           -5.94956789508433       -2.62729599556940        0.30261939867623
C           -5.64927395906424       -3.98091684159422        0.47027110434233
C           -6.65563897678828       -4.89413927214393        0.69100071268789
C           -7.97130661320636       -4.45125550237560        0.75589916431246
C           -8.27787339710580       -3.11653819465735        0.58290121311120
C           -7.28321898059263       -2.16219935209079        0.33806557890894
C           -7.57493784277629       -0.75631759670996        0.09798990706364
C           -8.88782749144697       -0.29505886325448       -0.00653293797512
C           -9.18596233929577        1.02223516939877       -0.28909547230054
C           -8.15779613765951        1.93599723161489       -0.50773065549682
C           -6.85281779810048        1.53033710562378       -0.40524796150835
C           -6.52009578990478        0.19761601589050       -0.07849362331274
C           -5.19657283681862       -0.27176062013862        0.03398894416373
C           -4.15019038705889        2.63446757077109        0.71761200752496
C           -3.84535689719359        3.96640324274110        0.56724417433876
H           -2.02690214671227        3.78844409489603       -2.30031075477272
H           -2.55845083471589        1.39237436707346       -2.01421377055032
H           -1.36940752361187       -2.65540371518553       -0.37369003724689
H            1.07135901904313       -2.61795334623865       -0.36318728141824
H            2.82012653758389        1.62581603183262       -0.40475670680779
H            5.25402320642136        1.69847829167891       -0.42087489576472
H            6.37661088937097       -2.54977467079940       -1.63046524930041
H            8.22004778454266       -3.84574467207059       -2.62420734743524
H           10.55743905334256       -3.24888744461225       -2.20260837886083
H           11.12707613738107       -1.30127903454022       -0.78854324149139
H           11.06824693743153        0.90976953634467        0.83528883399615
H           10.39592694033956        2.81789384718827        2.25811569893737
H            8.03156577032562        3.26425681036806        2.71413840731183
H            6.26053676304904        1.85232864335277        1.74757361470712
H            5.39869290723946       -2.46189006960431        0.55560369734277
H            2.96579975292967       -2.54912872870095        0.58194593473306
H            0.96855350224611        1.55371671124208        0.66683400913288
H           -1.43200828587665        1.51330168845410        0.65744745038360
H           -4.61269522441125       -4.27675321508775        0.42948349007729
H           -6.42782807345143       -5.94132023755215        0.82106422370657
H           -8.76685695244867       -5.15781814629615        0.94319984224501
H           -9.31331321215696       -2.82263115481175        0.64749608445775
H           -9.70904527798409       -0.98176493678804        0.12088076096635
H          -10.21565949485765        1.33852578536701       -0.35949614946268
H           -8.38678333109437        2.95971749710018       -0.76338612610890
H           -6.06508501770740        2.23756547411672       -0.60466997845408
H           -4.73643096099175        2.29708014428110        1.55991986729247
H           -4.18915633485696        4.69099167699533        1.29033249429136
