116
 energy: -175.483238610281 gnorm: 0.000174382109 xtb: 6.7.1 (edcfbbe)
B            4.35633574198186       -0.44440149386516       -0.22379594066444
C            4.65551534824746        0.96240171156101       -0.79202375747343
C            3.58527175602143        1.65512817901237       -1.39981515358310
C            3.77257504450746        2.91225609744219       -1.96801745101286
C            5.01066590709213        3.52041940887621       -1.92701322059370
C            6.09184075207695        2.89373904344952       -1.30206020490582
C            5.88192348191394        1.64004674943150       -0.74929330556280
C            7.43712502009203        3.60081473341029       -1.25689282474246
C            8.51904180398232        2.78047783018446       -0.54851848584568
C            7.90894576346000        3.87130079959915       -2.69282476000962
C            7.27630619544182        4.92984565989728       -0.50464590271243
O            2.30530441409805        1.18653545205782       -1.47871056429142
C            1.93453007040986        0.02794125176043       -0.88167335239611
C            0.58516114668135       -0.28694820861404       -0.90998381604785
C            0.13598931654306       -1.45132605436452       -0.27584698642313
C            1.05196421790330       -2.31403946136885        0.33616912554165
C            2.40204480774560       -1.99171818309054        0.32504046025513
C            2.88356269794086       -0.80878986469591       -0.26423598820132
O            3.24247334219092       -2.86231664963411        0.93987406452981
C            4.59535553558202       -2.67580024542273        0.93817230467296
C            5.24731523001335       -1.55188995566935        0.38319251367016
C            6.64898269700687       -1.57301414872966        0.42243280850774
C            7.39053222640256       -2.58853131364274        1.00412189264482
C            6.69647223720152       -3.65913931796575        1.57489846963752
C            5.31798781028508       -3.70570626599550        1.53403173746814
C            8.91029510046646       -2.58073936323606        1.04647766273803
C            9.37034029507736       -2.61677395770271        2.51104979446582
C            9.51900131480834       -1.33923428637276        0.38813785408828
C            9.43573735730540       -3.81961340657650        0.30692936161694
N           -1.23426311623203       -1.73351775258410       -0.23782949748027
C           -1.79883757042560       -2.86630068065561       -0.79572495567071
C           -1.15724810909634       -3.98291634761665       -1.30381900447600
C           -1.93396825969197       -4.96413020642915       -1.89511050357586
C           -3.30985143262504       -4.80522244099639       -2.01112143451990
C           -3.95091406967549       -3.67978429400370       -1.52603426681223
C           -3.20368751496185       -2.70204302890227       -0.87508633371283
C           -3.49100586081755       -1.41157831547145       -0.30833583248816
C           -4.64122379440611       -0.65226936189822       -0.08785485965169
C           -4.56513339772139        0.73507477487356        0.26753739976362
C           -3.29408696929775        1.28784298795409        0.50201252958662
C           -2.14594256997194        0.46065791605053        0.58011211052789
C           -2.23297385165101       -0.84748436461751        0.05892293214357
C           -1.10036973917411        1.26492141752114        1.12854553705722
C            0.18624734847927        1.01191684940172        1.61130691890376
C            0.96228927239056        2.07251926002182        2.02492851624097
C            0.48354393357237        3.38284883657254        1.98035234317127
C           -0.81463969795657        3.65318129655839        1.59416212629689
C           -1.61480950860941        2.58618744933917        1.21262553941896
N           -2.94079475593104        2.58041118818822        0.83588482349286
C           -3.66463124374630        3.74291164568090        0.53265578579397
C           -4.21808912257268        3.89905057696888       -0.73627622241644
C           -4.91230827905083        5.05211322910771       -1.04694354695333
C           -5.05141404901395        6.05892389768118       -0.10468438831320
C           -4.49820907219727        5.90590643396602        1.15639749344126
C           -3.80701513203021        4.75278640740514        1.48054852221155
C           -5.91312267228398        1.19549566722761        0.39752400920548
C           -6.51381515094509        2.38451347862577        0.82000829339366
C           -7.89135605769405        2.46044397186940        0.87728068788330
C           -8.69247355928699        1.37148499940455        0.55432675326008
C           -8.12597621403201        0.16292382140921        0.17721005895279
C           -6.74821403691089        0.08921931051366        0.09652970791247
N           -5.96200269262870       -1.01294409913708       -0.19426589688496
C           -6.47202523499117       -2.32132796980656       -0.20634215493296
C           -7.45513742517997       -2.68144193412058       -1.12392317188341
C           -7.97291080672579       -3.96357399182702       -1.10781340023221
C           -7.51676264149071       -4.89009977373542       -0.18397980349683
C           -6.53817864206096       -4.53095087600567        0.72944677120535
C           -6.01803236149915       -3.25131450134124        0.72576304109674
H            2.92799917626635        3.40120457735646       -2.42971478178055
H            5.12307322280827        4.49473795783350       -2.37690970739765
H            6.69229067638303        1.14633279523761       -0.24435282242884
H            8.24667679753942        2.58347160178196        0.48580400412977
H            9.45420256519739        3.33744846015440       -0.54886027996749
H            8.69158637667888        1.83619580893327       -1.05957038964039
H            7.20907497200101        4.50761772255863       -3.22705756998634
H            8.00314683510602        2.93495967329546       -3.23896488376839
H            8.87875825905651        4.36489346731266       -2.68253168056823
H            8.23123956651329        5.44903970540932       -0.45139261565539
H            6.92495491585857        4.74674594313744        0.50875025992926
H            6.56154028095708        5.58100134622592       -1.00000080106684
H           -0.10959087247702        0.36974440598943       -1.40808956739890
H            0.71574544487227       -3.19979141362397        0.85199560652964
H            7.15951887444002       -0.74943337627061       -0.04273659238546
H            7.22735483985931       -4.47193171458970        2.04577904059309
H            4.77797075236576       -4.54030937986100        1.95530651186142
H           10.45711310324730       -2.59637387882733        2.56356995165506
H            8.98186478161302       -1.75338046810308        3.04730741385205
H            9.02243353022049       -3.51450078213127        3.01422900994211
H           10.60442486746080       -1.39205525248756        0.44969979060125
H            9.19873527783179       -0.43122615391863        0.89372668670280
H            9.24540384046364       -1.27954821373770       -0.66276780887371
H            9.08371028067089       -4.73672196654218        0.77088474191396
H            9.09818729816961       -3.80978687912235       -0.72742939249118
H           10.52391579141186       -3.82869022486659        0.31578379423911
H           -0.08347121026781       -4.07524305766431       -1.25989218856111
H           -1.46155214620781       -5.84911780809634       -2.29349352563451
H           -3.89154935408175       -5.56825294789071       -2.50670858984641
H           -5.00937835851374       -3.56531957105539       -1.68213251325563
H            0.56242017797990        0.00630006669204        1.68993463399853
H            1.96337747381967        1.88801431756342        2.38469675466821
H            1.12994991502930        4.19473637924421        2.27732288610049
H           -1.19115205530266        4.66447841588005        1.58885838749413
H           -4.10236807332603        3.11101873066122       -1.46504406837416
H           -5.34227392176791        5.16852817265567       -2.03030967256738
H           -5.59241245303217        6.95972369233649       -0.35132298225882
H           -4.61235618171008        6.68509088769615        1.89536989459450
H           -3.40039860523908        4.61559435261807        2.47127111552820
H           -5.92428189022986        3.23134666379522        1.12246346719084
H           -8.35437820301823        3.38282583082844        1.19500614251709
H           -9.76655570839256        1.45770875284163        0.61776738029936
H           -8.74534531380966       -0.69705292382624       -0.02523491518148
H           -7.78882295698322       -1.96249423205073       -1.85741779752131
H           -8.73096542605342       -4.24245566343279       -1.82471390344491
H           -7.92208073390695       -5.89042109806372       -0.17736655832068
H           -6.18221260691329       -5.25025671719517        1.45143304508945
H           -5.25891693399513       -2.96201592457514        1.43658417630802
