116
 energy: -175.575970383524 gnorm: 0.000056327833 xtb: 6.7.1 (edcfbbe)
B            4.34492101984316       -0.46204118040314       -0.23159716964938
C            4.64494604199103        0.94390112720687       -0.80292617895788
C            3.57795771804893        1.62536693520506       -1.41241657647288
C            3.77301841488279        2.88311246785574       -1.98558339753199
C            5.00774886427431        3.48314774020993       -1.93894044288120
C            6.09041582277122        2.86130972666909       -1.30811178365758
C            5.87662456347185        1.61311636548182       -0.75755368656109
C            7.43305050539916        3.57431238354334       -1.25375784615855
C            8.51139572998788        2.75266301735603       -0.54138374072251
C            7.91238513513391        3.84935457090571       -2.68597990855870
C            7.26340493977774        4.89960948436372       -0.49787755446837
O            2.30176736733310        1.15578860219219       -1.49627129994258
C            1.92673589116621        0.01603688417389       -0.87878910994410
C            0.57440646521993       -0.29866182393022       -0.89015604541162
C            0.13466571192109       -1.43010443394530       -0.21238480792412
C            1.03546174570030       -2.28304724909056        0.41541590571006
C            2.39122380868177       -1.98105069973307        0.37718446545573
C            2.86404561639450       -0.81831745173433       -0.25077903163189
O            3.23244572686145       -2.83718098384540        0.99810691467146
C            4.58474166746134       -2.66967082955584        0.95587485344414
C            5.23890928991161       -1.57527669316976        0.36574326008984
C            6.64093999094230       -1.60572307900550        0.36462150885593
C            7.38544112205649       -2.61638321304302        0.94048548910461
C            6.68899086453790       -3.66409291321127        1.55171932032058
C            5.31566122672894       -3.69711828175923        1.55442673124112
C            8.90646279062158       -2.63433925642527        0.93522653791785
C            9.41169321783021       -2.65244789649979        2.38480581400386
C            9.51058738636219       -1.41278656595456        0.23653739231120
C            9.38801914147236       -3.89312099473150        0.20033932190155
N           -1.23768405909074       -1.71192241624067       -0.16879531325830
C           -1.79890195874267       -2.82805258189403       -0.75833222690021
C           -1.16054154260744       -3.95167929433598       -1.25947926888593
C           -1.93357616101292       -4.91096172515416       -1.88278892284274
C           -3.30426865770594       -4.72947369768124       -2.03920290495006
C           -3.93973866447438       -3.60259479295313       -1.55828943009744
C           -3.19680961766597       -2.64456717147330       -0.87330188700473
C           -3.48304076300585       -1.35906373308499       -0.29323229363908
C           -4.64206831803568       -0.59840656394114       -0.07126939647713
C           -4.56834438191095        0.76426419157814        0.30319577372085
C           -3.30180800628530        1.31242136995065        0.56412053019916
C           -2.15403610444813        0.48805607093701        0.63066807744054
C           -2.24180646823975       -0.80683613166607        0.09678862838966
C           -1.10177883904579        1.29768576677100        1.18307381881686
C            0.18263227335320        1.04770402397197        1.65974477517475
C            0.95362756208593        2.10652074816252        2.09434557518506
C            0.46696571462081        3.41008384497133        2.07100007048837
C           -0.83229608323648        3.67526367294255        1.68475365398571
C           -1.62262574060124        2.60877152609674        1.28438068040779
N           -2.95347611549358        2.60164645409469        0.91140301344883
C           -3.67688623238303        3.76622461433068        0.61586112087460
C           -4.22336268578013        3.93633065017572       -0.65361349358630
C           -4.91664917396438        5.09261167928541       -0.95621491422040
C           -5.05921138716631        6.08996147763790       -0.00531957147558
C           -4.51249310016478        5.92394833621891        1.25638688898773
C           -3.82443954039169        4.76632623288145        1.57244065025547
C           -5.92545454299759        1.22942618541188        0.42220146004169
C           -6.52946720433953        2.40641233743971        0.85700894835406
C           -7.90679326723112        2.48247726514311        0.89975779597147
C           -8.70376712573013        1.39714536191739        0.54965051172194
C           -8.13481137107377        0.20115258960752        0.16059880714998
C           -6.75187548007539        0.12890084659123        0.09368807159951
N           -5.96281224102591       -0.96445477664899       -0.20538765170408
C           -6.46636790206627       -2.27472027606570       -0.23717211660395
C           -7.44012197594518       -2.62885002183308       -1.16566465786446
C           -7.95269940272711       -3.91370306927003       -1.16826254168079
C           -7.49800959617306       -4.84869269138843       -0.25330827236691
C           -6.52811108903992       -4.49604204351360        0.67075713834552
C           -6.01580771715736       -3.21286642003585        0.68710216827629
H            2.93126129160253        3.37218888936547       -2.45157320085774
H            5.12533826510242        4.45709818216627       -2.38909476728741
H            6.68104518818023        1.11719575173635       -0.24452680566624
H            8.23402276974275        2.55347306306892        0.49125396316943
H            9.44587321317493        3.31028083868406       -0.53527018594353
H            8.68808461515145        1.80998910834968       -1.05425768085458
H            7.21657226102530        4.48861012514174       -3.22197114321566
H            8.00963580093732        2.91530780849451       -3.23556667732792
H            8.88216661455979        4.34233053247854       -2.66849968076466
H            8.21629026914402        5.42113864124950       -0.43583778019168
H            6.90539071356497        4.71242833055459        0.51241891083147
H            6.55078608045130        5.55123741176872       -0.99573615072763
H           -0.12492415409384        0.35260589085086       -1.38798593064419
H            0.69261993239475       -3.15495245169203        0.94897627081236
H            7.14430295045274       -0.79707747304824       -0.13429876677897
H            7.22531596550490       -4.47425848169406        2.02175052540357
H            4.77808723081099       -4.51621497668483        2.00745177803370
H           10.49954167873451       -2.64628514733731        2.40260476505599
H            9.05256920470223       -1.77510432616035        2.91885987335295
H            9.06891480872948       -3.53698546351668        2.91418750963907
H           10.59632263653715       -1.48078090533731        0.26404038998188
H            9.22064673446030       -0.49192777576864        0.73734556335327
H            9.20468214637198       -1.36635730432042       -0.80618248626339
H            9.03931817344546       -4.79701572968647        0.69198588683430
H            9.01620751582334       -3.89642431323785       -0.82225582696678
H           10.47539476899020       -3.91866258222917        0.17263521397996
H           -0.08996685897951       -4.06383475703320       -1.18391937420479
H           -1.46434322035138       -5.80038622886780       -2.27630874448416
H           -3.88121421997898       -5.47780637620534       -2.56226777398669
H           -4.99154046263763       -3.46788567075978       -1.74251490851919
H            0.56885301387847        0.04404905038408        1.72065897450909
H            1.95468478388088        1.92022324617911        2.45503930490557
H            1.10495264669625        4.22303959432372        2.38447984767672
H           -1.21659139900187        4.68376582840398        1.69497249231048
H           -4.10647675448607        3.15485656789681       -1.38924886479561
H           -5.34331136168342        5.21824569231362       -1.94004450177033
H           -5.59882214473363        6.99360337698289       -0.24546735708011
H           -4.62981371340142        6.69578869561346        2.00279324990282
H           -3.42326832843793        4.61910055732992        2.56398281368464
H           -5.94461944414708        3.24910565249869        1.18082474663290
H           -8.37443158180120        3.39905392189745        1.22794318075109
H           -9.77880847053680        1.48338748871404        0.60416026683474
H           -8.74947162422086       -0.65733157575076       -0.06337538830513
H           -7.77225417194472       -1.90291631227021       -1.89304847236284
H           -8.70483349705156       -4.18734643380521       -1.89357002222248
H           -7.89799128646010       -5.85138505803010       -0.26204112471430
H           -6.17239670904554       -5.22265726050055        1.38569460386695
H           -5.26283378543335       -2.92852809356450        1.40638837447770
