116
 energy: -175.483239088678 gnorm: 0.000098521622 xtb: 6.7.1 (edcfbbe)
B            4.35231685135319       -0.44396269488272       -0.22821508669526
C            4.65917211694794        0.96504433842493       -0.78683717820193
C            3.58937309983485        1.67354821057965       -1.37699306461186
C            3.78286476064398        2.93411993815695       -1.93547010133740
C            5.02728493140555        3.52968820467191       -1.90265064863920
C            6.10906678973089        2.88656312429535       -1.29569941329932
C            5.89267101364917        1.63017600269219       -0.75163593862308
C            7.46190095582004        3.57962655154666       -1.25982658542851
C            8.54386066311715        2.74143370452774       -0.57274329848407
C            7.91927505013259        3.85969169646395       -2.69860975867607
C            7.32358301625359        4.90268622160213       -0.49275238893219
O            2.30432655012090        1.21773346545852       -1.44751323142175
C            1.92906318731786        0.05510631448541       -0.86108699074879
C            0.57760915599029       -0.25093363375697       -0.88632407540950
C            0.12446011939734       -1.42073836822783       -0.26511649125316
C            1.03785642241150       -2.29506971071616        0.33414424266408
C            2.38975261431121       -1.98094759381149        0.32034477737307
C            2.87610325122583       -0.79524189337345       -0.25930383734934
O            3.22768864785347       -2.86381517993634        0.92102055202021
C            4.58211414770593       -2.68931669979572        0.90851037875382
C            5.23899593606838       -1.56592589144561        0.35834462944525
C            6.64075079082814       -1.60105041205913        0.38218310488985
C            7.37852357906792       -2.62983374992548        0.94508085422710
C            6.68016617675498       -3.69909881174926        1.51312307818861
C            5.30093709569874       -3.73179670379486        1.48687460367625
C            8.89869990500211       -2.63851272242612        0.96887963018138
C            9.37682700127503       -2.69763505415462        2.42686589856536
C            9.51250989737871       -1.39552457818321        0.31813892317510
C            9.40123237642733       -3.87377025506118        0.20762882574026
N           -1.24641089551200       -1.70009294246221       -0.23119416301002
C           -1.81135038789750       -2.82500581358663       -0.80497216134800
C           -1.17015113068626       -3.93568891828458       -1.32630625441407
C           -1.94681310497149       -4.90784113461782       -1.93258403761285
C           -3.32206756514227       -4.74536113537267       -2.05005159371071
C           -3.96268661333099       -3.62545968793575       -1.55157167223707
C           -3.21565599600902       -2.65777898019016       -0.88564388351725
C           -3.50258629447860       -1.37430146806041       -0.30291419277309
C           -4.65236032033901       -0.61699667612831       -0.07483620776949
C           -4.57582049302036        0.76560003368172        0.29875178653399
C           -3.30452568078191        1.31398352586449        0.54280905934724
C           -2.15725894571691        0.48506381134650        0.61173439298517
C           -2.24445850784776       -0.81639374451086        0.07407476912664
C           -1.11189378736843        1.28115514151939        1.17252213799075
C            0.17396709385348        1.02068898472880        1.65319047021353
C            0.94937364412576        2.07475585380769        2.08424733472321
C            0.47093290825273        3.38576887127539        2.05870176821394
C           -0.82615091857003        3.66231088319677        1.67348939078961
C           -1.62589425679800        2.60133740451060        1.27449071303990
N           -2.95107376776538        2.60164223128318        0.89510336108846
C           -3.67308191305762        3.76869605569833        0.60517238710048
C           -4.22295813173646        3.94175936359029       -0.66310622930704
C           -4.91508945702112        5.09949360992380       -0.96078618307447
C           -5.05555848423974        6.09429213263730       -0.00606169912424
C           -4.50601092289721        5.92440565745156        1.25445071837695
C           -3.81702879252234        4.76638759225799        1.56563479887926
C           -5.92354654032775        1.22537137521556        0.43209508762548
C           -6.52417428475640        2.40951273529953        0.86843694439957
C           -7.90170108667172        2.48596122122670        0.92378680238682
C           -8.70312346593266        1.40190996681136        0.58537891597717
C           -8.13690110324536        0.19770622743809        0.19410452398966
C           -6.75908304558079        0.12376726641204        0.11524080604766
N           -5.97330029420480       -0.97523561874441       -0.18834771522612
C           -6.48393616789606       -2.28311330418641       -0.21782012301193
C           -7.46631871527697       -2.63098983088689       -1.14088972517369
C           -7.98426039992744       -3.91315949212273       -1.14210016677831
C           -7.52888534126685       -4.85190717974068       -0.23030572482085
C           -6.55107106679935       -4.50494094188269        0.68862283736155
C           -6.03089282239071       -3.22539266415140        0.70233470237313
H            2.93822564917904        3.43543206759492       -2.38358986263426
H            5.14443134667180        4.50694204197926       -2.34490494722729
H            6.70353442655886        1.12399214933272       -0.26001063025650
H            8.28220024930143        2.53723813853476        0.46293738404643
H            9.48467754762450        3.28875583604072       -0.57933247831655
H            8.70028791212455        1.80041116865617       -1.09488065568576
H            7.21996688176545        4.50885050779474       -3.21791402456674
H            7.99675178496563        2.92798741185162       -3.25519801988710
H            8.89442718051378        4.34275436089934       -2.69518343184522
H            8.28417308619855        5.41200627318663       -0.44634028101704
H            6.98299413049482        4.71299159399458        0.52309771263038
H            6.60915043605860        5.56559182164808       -0.97277871463333
H           -0.11534794266219        0.41550080719775       -1.37386025044578
H            0.69858377408763       -3.18473782478658        0.84117670944754
H            7.15434082228922       -0.77772328551558       -0.08007126998223
H            7.20809410097988       -4.52181256052955        1.96988640267733
H            4.75729578330689       -4.56533884479988        1.90557023836576
H           10.46434370930091       -2.68955840137314        2.46568194897866
H            9.00462604201550       -1.83682571169291        2.97856805185990
H            9.02566500632572       -3.59772799250905        2.92348552260000
H           10.59796634888564       -1.46016426751643        0.36634986950143
H            9.20750701320255       -0.49036598654000        0.83807311880695
H            9.22741858075212       -1.32057354915189       -0.72871527863646
H            9.04505981656726       -4.79264894232873        0.66488449871528
H            9.05065779626613       -3.84757046458206       -0.82209638255840
H           10.48927092911905       -3.89466119857884        0.20237226885432
H           -0.09662409963208       -4.03023267205391       -1.28119581673379
H           -1.47455549747006       -5.78806882516626       -2.34156298211108
H           -3.90362114811732       -5.50072228437164       -2.55740403609246
H           -5.02051262952496       -3.50714269826676       -1.70909883705975
H            0.55013651393312        0.01399376979019        1.71653208968168
H            1.94971268478330        1.88468355162830        2.44315547183183
H            1.11686686560194        4.19286120218186        2.36945903530656
H           -1.20227519339543        4.67372172551222        1.68222349673724
H           -4.10615384628730        3.16304304023986       -1.40164948123876
H           -5.34227122757920        5.22900361336583       -1.94372484838864
H           -5.59478307978418        6.99886030500071       -0.24259715651276
H           -4.62125969781303        6.69416894057393        2.00305796668114
H           -3.41342562810882        4.61596587496175        2.55566737397232
H           -5.93452902523178        3.25192354466685        1.18277589307942
H           -8.36460651812688        3.40467204225244        1.25216322315141
H           -9.77725395024630        1.48829085535695        0.64768588029221
H           -8.75666140304444       -0.65903305506217       -0.02047448666197
H           -7.79924250274815       -1.90248086799442       -1.86523389000506
H           -8.74172460603625       -4.18246083198025       -1.86327074265971
H           -7.93422831881515       -5.85221446222214       -0.23731779779632
H           -6.19568776578004       -5.23376514948441        1.40128650836852
H           -5.27238984206476       -2.94562974974457        1.41760789364892
