32
 energy: -55.347758934241 gnorm: 0.000044145417 xtb: 6.7.1 (edcfbbe)
C            4.98638454715237       -0.70373219126956       -0.00133640137370
C            4.98620018836090        0.70486775404302        0.00081578358263
C            3.81461307777317        1.40557056375335        0.00213438061448
C            2.58405870421032        0.71412209916201        0.00135509709774
N            1.43195596447858        1.39991971071927        0.00197334183580
C            0.30499313221788        0.71501509783195        0.00132458645816
C           -0.95195613923921        1.43000124225728        0.00112793584556
C           -0.99531075836079        2.82783403906320        0.00139897939781
C           -2.22005359995243        3.45803482781569        0.00074767395041
C           -3.36879658951550        2.66531341259801       -0.00032205370048
N           -3.34878673442308        1.35352608536086       -0.00047892336712
C           -2.17296668375048        0.72716510142974        0.00034313780979
C           -2.17281385521510       -0.72775914179732        0.00054861680173
N           -3.34852646381984       -1.35431876619222        0.00061545637074
C           -3.36833592436269       -2.66610872730363        0.00120689791177
C           -2.21945747766921       -3.45863314158249        0.00190694352538
C           -0.99481800203736       -2.82822345872562        0.00169403447113
C           -0.95167095942167       -1.43038289247443        0.00091250788418
C            0.30515848441262       -0.71516866641028        0.00058504392419
N            1.43228903160667       -1.39980195940660       -0.00046439627715
C            2.58423416316449       -0.71372377616243       -0.00040528421418
C            3.81500120999360       -1.40478981317701       -0.00193675473875
H            5.93118587358656       -1.22712903438664       -0.00256153850726
H            5.93085106141766        1.22853578340354        0.00147309993208
H            3.79265802033353        2.48427562164615        0.00377483172056
H           -0.06528239876308        3.37573563180862        0.00232113138943
H           -2.29581106977666        4.53439652391101        0.00108834162379
H           -4.35344219989596        3.11515832162990       -0.00119630678609
H           -4.35291556779547       -3.11609928726018        0.00128780460995
H           -2.29503853214699       -4.53500971538672        0.00260411429098
H           -0.06471307322883       -3.37599937342059        0.00212790759372
H            3.79344455908426       -2.48350372843988       -0.00361812133182
