32
 energy: -55.304665374191 gnorm: 0.000069827225 xtb: 6.7.1 (edcfbbe)
C            5.02321203114464       -0.69293884244506       -0.00071451782701
C            5.02306770585438        0.69388140491988        0.00048273047124
C            3.82911784129967        1.39231019585407        0.00129954172117
C            2.60824134729040        0.72468932715082        0.00097476120199
N            1.43534519805292        1.35566065912834        0.00141848483233
C            0.27649423576082        0.71503245073924        0.00109282941746
C           -0.96494320269253        1.41266825352738        0.00105909236395
C           -1.00581796254173        2.81792652144526        0.00118066604267
C           -2.22111501716587        3.45343536597492        0.00079771545049
C           -3.38333346933501        2.66916722145425        0.00028866303268
N           -3.37076124861041        1.36227605762427        0.00031354937889
C           -2.20185969305870        0.72008102352214        0.00072827322352
C           -2.20171415301360       -0.72063370864414        0.00085404974376
N           -3.37048712487178       -1.36306075651037        0.00105012094627
C           -3.38279977552951       -2.66995347203655        0.00128172133192
C           -2.22042450143004       -3.45398809736251        0.00132456075647
C           -1.00525379997819       -2.81823855493255        0.00104921810469
C           -0.96465521379387       -1.41297102314093        0.00080767395435
C            0.27663818696955       -0.71508392191985        0.00061565593403
N            1.43562466926555       -1.35548209818940        0.00003453120342
C            2.60838925415314       -0.72425679380807       -0.00000171537206
C            3.82940803145277       -1.39161977683036       -0.00091434325714
H            5.95678940153508       -1.23413468615091       -0.00147636842993
H            5.95653170372729        1.23527331427029        0.00074500191284
H            3.81565299041247        2.47109501162335        0.00215518834760
H           -0.07132510129773        3.36043501928931        0.00152596377723
H           -2.29015542448530        4.53001155830336        0.00085129979851
H           -4.36221498300523        3.13039091721145       -0.00014388814842
H           -4.36158981008189       -3.13137151946681        0.00146464993538
H           -2.28925152151333       -4.53057782074846        0.00158778881740
H           -0.07065227839127       -3.36055965894580        0.00106639573013
H            3.81617374087039       -2.47040760466844       -0.00177290014901
