  60
        -91.69173500
 C         -2.2644107256       -3.4144206829        1.5509566642
 C         -0.9230251234       -3.1851754979        1.3791630658
 C         -0.4414254600       -1.9790005435        0.7931786881
 C          0.9454241613       -1.7244052611        0.6221586654
 C          1.9298519337       -2.7607648588        0.6753972438
 C          3.2367444200       -2.5074592865        0.4451758514
 C          3.7303482711       -1.1886976650        0.1518274119
 C          5.0414223851       -0.9408915801       -0.2713138579
 C          5.9873508677       -1.9911481000       -0.4755208491
 C          7.2291010060       -1.7536303133       -0.9846472219
 C          7.6092808971       -0.4498417008       -1.3291317026
 C          6.7344822777        0.5969488408       -1.1106320757
 C          5.4681497572        0.4045600006       -0.5669859467
 C          4.5820054654        1.5107712862       -0.2665249886
 C          5.0155289655        2.8406470944       -0.3458162804
 C          4.1845342538        3.8979938182       -0.0302823971
 C          2.8937806478        3.6506140308        0.3990732806
 C          2.4461916656        2.3444877161        0.4969836527
 C          3.2562593024        1.2619388731        0.1537419333
 C          2.7730206118       -0.1108664159        0.2508985485
 C          1.4463928076       -0.4024100678        0.4220305728
 C         -1.4233354162       -1.0444141910        0.3785415245
 C         -2.7664941289       -1.2853733035        0.5547521742
 N         -3.7079028593       -0.3256138614        0.1513418815
 C         -4.8319780347       -0.5659381388       -0.6088981331
 C         -5.2634509607       -1.7471029717       -1.1978635689
 C         -6.4318183435       -1.7103351605       -1.9349821372
 C         -7.1518066156       -0.5289487858       -2.0975967687
 C         -6.7121954831        0.6559570238       -1.5373195403
 C         -5.5430613232        0.6439454636       -0.7909499131
 C         -4.7980790523        1.6606750188       -0.0996980925
 C         -4.9908347003        3.0207179926        0.0947430825
 C         -4.0685662611        3.7184524275        0.8517646222
 C         -2.9760132931        3.0722478623        1.4254379561
 C         -2.7631506528        1.7187005166        1.2461776040
 C         -3.6713984175        1.0169447176        0.4647571493
 C         -3.2106489255       -2.4749786620        1.1534636951
 H         -2.5963811802       -4.3315382590        2.0157987711
 H         -0.2191011709       -3.9195922621        1.7353435105
 H          1.6199008784       -3.7784646372        0.8559081451
 H          3.9318689622       -3.3308831590        0.4761685704
 H          5.7112313194       -3.0049141051       -0.2360858918
 H          7.9201796120       -2.5700678403       -1.1367089611
 H          8.5821621023       -0.2635095369       -1.7578914704
 H          7.0592552674        1.5879007480       -1.3861007288
 H          6.0265347013        3.0629763598       -0.6468401869
 H          4.5506083049        4.9113205284       -0.1067312650
 H          2.2379158545        4.4663118424        0.6650555824
 H          1.4460957573        2.1779421086        0.8650455857
 H          0.7334753021        0.4039814031        0.4478776539
 H         -1.1275203469       -0.1451811353       -0.1382689026
 H         -4.6993499567       -2.6614682554       -1.0932717400
 H         -6.7915883149       -2.6159941193       -2.4002889613
 H         -8.0603275077       -0.5406629131       -2.6811455418
 H         -7.2623275417        1.5738790197       -1.6796680867
 H         -5.8470339632        3.5189713506       -0.3343618510
 H         -4.1982571882        4.7785825155        1.0107155834
 H         -2.2814664666        3.6408524036        2.0258746531
 H         -1.9260501086        1.2209081644        1.7117920728
 H         -4.2627252394       -2.6331432054        1.3283925074
