  73
       -105.62259931
 C          1.3677973769       -2.4872107101       -1.7735484478
 C          0.0013060079       -1.8671404409       -2.0364355861
 C         -1.0876329392       -2.5150287108       -1.1829948904
 C         -2.4704368716       -1.9687015580       -1.5378138579
 C         -3.5877199204       -2.3405969429       -0.5521289298
 C         -3.6305472937       -3.8463786431       -0.2718469807
 C         -4.9661915768       -4.3122035275        0.2982387859
 C         -3.4672331232       -1.5361298057        0.7547697183
 N         -3.7704390490       -0.1449606144        0.5573593169
 C         -5.0364848196        0.3594443745        0.4133455885
 C         -6.2544055011       -0.2857420860        0.5186646880
 C         -7.4088638728        0.4783471017        0.3344809982
 C         -8.6661828810       -0.1477034028        0.4294979152
 N         -9.6894243523       -0.6655152623        0.5048162178
 C         -7.3442195901        1.8554373913        0.0517347786
 C         -6.1311291372        2.4928292741       -0.0535027823
 C         -4.9616309109        1.7522029196        0.1243836553
 C         -3.5794552720        2.0775301816        0.0777968440
 C         -2.8770099290        3.2616370777       -0.1773019691
 C         -1.5095961237        3.2379575350       -0.1743076332
 C         -0.7974664682        2.0401737098        0.0945385399
 C          0.5856128108        2.0312153644        0.0652906247
 C          1.8106409603        1.9914273264        0.0181755434
 C          3.1776545709        1.9491105718       -0.0575386065
 C          3.9079387286        3.1031092556       -0.4461502716
 C          5.2582970037        3.0735886026       -0.5732148377
 C          6.0040784243        1.8765352149       -0.3194348331
 C          7.3910788307        1.8283303192       -0.4577823632
 C          8.0941521977        0.6650249677       -0.2071174234
 C          7.4325951396       -0.5054430507        0.2014331712
 C          8.1258986482       -1.7079690663        0.4672749093
 C          7.4451213229       -2.8427701952        0.8712137227
 C          6.0753521557       -2.8266838485        1.0268785567
 C          5.3325298650       -1.6461877113        0.7736689433
 C          3.9403283209       -1.5912203023        0.9285166989
 C          3.2410114870       -0.4276268199        0.6640683683
 C          3.8977050060        0.7259744049        0.2362912879
 C          5.3041046347        0.7098133178        0.0887243313
 C          6.0217261446       -0.4794468352        0.3538342819
 C         -1.4925080383        0.8456577927        0.3718574649
 C         -2.8687015766        0.8720667506        0.3466781891
 H          1.3668649507       -3.5420421059       -2.0396640077
 H          2.1358070028       -1.9857333003       -2.3571514466
 H          1.6315949878       -2.3994192628       -0.7230049358
 H         -0.2521470948       -1.9831163069       -3.0922859647
 H          0.0419349285       -0.7968069061       -1.8221916556
 H         -1.0670033088       -3.5945240637       -1.3387152898
 H         -0.8629350236       -2.3329815317       -0.1313096251
 H         -2.7433613996       -2.3385761193       -2.5287360087
 H         -2.4146446790       -0.8809431773       -1.6040251193
 H         -4.5369586617       -2.0565510397       -1.0185392597
 H         -3.4546017672       -4.3749791244       -1.2102668264
 H         -2.8285488898       -4.1137931778        0.4178251439
 H         -5.1620251303       -3.8717950674        1.2731739337
 H         -5.7818248206       -4.0444602710       -0.3704449199
 H         -4.9660488016       -5.3928954060        0.4170060292
 H         -4.1644434998       -1.9341703578        1.4955076703
 H         -2.4588210450       -1.6189532282        1.1595504524
 H         -6.3341056093       -1.3399450054        0.7327899598
 H         -8.2665135561        2.4007587056       -0.0814167036
 H         -6.0802790938        3.5486744790       -0.2702808408
 H         -3.4151874205        4.1753654205       -0.3788579102
 H         -0.9418882650        4.1334114541       -0.3776778508
 H          3.3529193389        4.0085612691       -0.6463748400
 H          5.8016461417        3.9573353983       -0.8742517810
 H          7.9182063630        2.7195992154       -0.7673095727
 H          9.1679717725        0.6460015485       -0.3224032127
 H          9.1991203782       -1.7275264195        0.3502618025
 H          7.9950229648       -3.7517523223        1.0680730198
 H          5.5476994750       -3.7139385577        1.3440317572
 H          3.4158372975       -2.4758792730        1.2606788886
 H          2.1684754373       -0.3960917714        0.7888210784
 H         -0.9334072716       -0.0523388980        0.5779756700
