  73
       -105.68899926
 C          1.4518227236       -2.0938127697       -2.0246166629
 C          0.0436282463       -1.5571649932       -2.2492144016
 C         -0.9931329731       -2.3129746758       -1.4198237950
 C         -2.4082829201       -1.8137434801       -1.7129138540
 C         -3.4854287847       -2.2918327353       -0.7280974248
 C         -3.4581607695       -3.8122997824       -0.5403848852
 C         -4.7571276343       -4.3698873419        0.0323803636
 C         -3.3685116149       -1.5656490989        0.6241868028
 N         -3.7180291609       -0.1749621219        0.5204287398
 C         -4.9997596948        0.3038799837        0.4488178766
 C         -6.1992149519       -0.3802755954        0.5486230545
 C         -7.3743537493        0.3620465633        0.4514303181
 C         -8.6135159746       -0.3052971643        0.5456546481
 N         -9.6187686165       -0.8546876606        0.6210310658
 C         -7.3553623496        1.7537287074        0.2588234563
 C         -6.1594593328        2.4288619616        0.1583067714
 C         -4.9718626986        1.7109757788        0.2508913555
 C         -3.5907916747        2.0768169491        0.1833112509
 C         -2.9264285648        3.2846027935       -0.0153906224
 C         -1.5518383850        3.2896519829       -0.0581811699
 C         -0.8212905208        2.0995287971        0.1101365318
 C          0.5849980702        2.1037479410        0.0354442823
 C          1.7896321288        2.0326685273       -0.0478419087
 C          3.1880242050        1.9394652762       -0.1565369548
 C          3.9220071482        3.0130175703       -0.6681150837
 C          5.2889469125        2.9303560565       -0.8075615699
 C          5.9802537876        1.7695767176       -0.4453361250
 C          7.3923151703        1.6524136859       -0.5869045918
 C          8.0424823800        0.5191222540       -0.2320195664
 C          7.3393017662       -0.6014977289        0.2996995521
 C          7.9888916368       -1.7797551054        0.6717396946
 C          7.2759625365       -2.8474356141        1.1860647027
 C          5.9046284260       -2.7680495066        1.3434146341
 C          5.2125477101       -1.6097938681        0.9847450640
 C          3.8012765116       -1.4881371227        1.1389780462
 C          3.1500573842       -0.3562776436        0.7804145031
 C          3.8495710444        0.7558409165        0.2329632075
 C          5.2531917563        0.6722662763        0.0805199944
 C          5.9337540176       -0.5119058604        0.4545616956
 C         -1.4684396482        0.8855817078        0.3305655616
 C         -2.8520567519        0.8774896050        0.3509914425
 H          1.5127558033       -3.1415637264       -2.3110635831
 H          2.1726888457       -1.5338327823       -2.6151814299
 H          1.7343785014       -2.0069894008       -0.9784572839
 H         -0.2124803273       -1.6423722619       -3.3073987479
 H          0.0163503375       -0.4975212299       -1.9863641555
 H         -0.9232495797       -3.3777616551       -1.6462505456
 H         -0.7536936037       -2.1887924314       -0.3632302007
 H         -2.6875488593       -2.1390027123       -2.7176245071
 H         -2.4035968379       -0.7226654297       -1.7179325649
 H         -4.4564080311       -2.0209902968       -1.1563899496
 H         -3.2853430604       -4.2742311574       -1.5139057187
 H         -2.6270668807       -4.0861283499        0.1112301621
 H         -4.9407424055       -4.0058088621        1.0407928123
 H         -5.6022756578       -4.0906482363       -0.5937223258
 H         -4.7113539931       -5.4552180955        0.0753906206
 H         -4.0395696361       -2.0316568307        1.3491895383
 H         -2.3510319456       -1.6410872553        1.0072336713
 H         -6.2441958699       -1.4483880057        0.6940084757
 H         -8.2939607638        2.2825215143        0.1900587920
 H         -6.1424890767        3.4976514241        0.0097977104
 H         -3.4857011781        4.1992283000       -0.1414357807
 H         -1.0118287642        4.2098570165       -0.2228193825
 H          3.3969248931        3.9121463765       -0.9572315186
 H          5.8421801799        3.7692627207       -1.2050729712
 H          7.9345438388        2.4972730478       -0.9877188972
 H          9.1145114727        0.4402212616       -0.3439492769
 H          9.0606235753       -1.8500504313        0.5535956217
 H          7.7954055075       -3.7516040931        1.4684266998
 H          5.3548816309       -3.6060002377        1.7479224065
 H          3.2612809305       -2.3273630503        1.5555834675
 H          2.0809995534       -0.2634712499        0.9068550973
 H         -0.8859949678       -0.0116340470        0.4608564403
