73
 energy: -105.665809322488 gnorm: 0.000045434446 xtb: 6.7.1 (edcfbbe)
C            1.24512644631868       -2.47617280315240       -2.31693061898451
C           -0.14244311900866       -1.87575635697467       -2.51233978459007
C           -1.17251553767171       -2.50360958855524       -1.57421174988551
C           -2.56875986236047       -1.92881500213351       -1.81388976868195
C           -3.63765411792537       -2.35517770853802       -0.79466261471513
C           -3.68422843263220       -3.87748591941095       -0.61198620668939
C           -5.00237759516114       -4.37558821828982       -0.02656734797859
C           -3.44599961480097       -1.63993356474626        0.55622373853825
N           -3.74736972990747       -0.23406799243367        0.47511308158740
C           -5.01436695735378        0.28729872513260        0.42593711106018
C           -6.23442244510446       -0.35766886493048        0.51512821936022
C           -7.38943679232681        0.42641203340937        0.44726931540283
C           -8.64802441827857       -0.19556672854725        0.53227062924451
N           -9.67671836297189       -0.70622443049238        0.60176429332069
C           -7.32335160026375        1.82493254027871        0.29375031167123
C           -6.10912919515292        2.46271292313109        0.20794024748994
C           -4.93970041634742        1.70246721036745        0.27294651861563
C           -3.55830961321127        2.02703162105730        0.22005647162152
C           -2.85839909101577        3.23152596768860        0.07321653763668
C           -1.49116866968421        3.20858076372307        0.05174747084631
C           -0.77570572169967        1.98965029475223        0.18848022172044
C            0.60829793303400        1.99443260750166        0.16236357713334
C            1.83481117578050        1.98099845311898        0.13152139713610
C            3.20471522895997        1.98593874054050        0.08646809688368
C            3.90162520758962        3.19002594350998       -0.20056461291515
C            5.25643397751403        3.22329642842981       -0.26880477085769
C            6.04241303140182        2.04572727098180       -0.04633379184167
C            7.43587480005482        2.06556140407998       -0.11288764042385
C            8.17838096656874        0.92135890991625        0.11145923566328
C            7.55108242650039       -0.29920587887446        0.41570494362507
C            8.28532649834692       -1.48314454074559        0.65540355157901
C            7.63789993559229       -2.66929937826122        0.95423231959186
C            6.26182416835109       -2.72425976057331        1.02578539868708
C            5.47861468145477       -1.56517710098889        0.79423610200335
C            4.07805083312577       -1.58300324946275        0.86336264071360
C            3.34064462731091       -0.43574943220120        0.63364575451559
C            3.96402740654347        0.77409115854773        0.32583479314246
C            5.37613364111080        0.82710295416123        0.25345719130377
C            6.13386073424631       -0.34456014875291        0.48697213239815
C           -1.46900393198850        0.77168781480737        0.34455338172797
C           -2.84590094454154        0.79875745803189        0.34741279471338
H            1.23349020509378       -3.54372502989952       -2.52816710647952
H            1.96482880836466       -2.00237918974756       -2.98092180953104
H            1.58392813130066       -2.33309319221629       -1.29337438722921
H           -0.45945680674641       -2.02588830684029       -3.54729136446988
H           -0.09829957060077       -0.79820270177527       -2.33523194089546
H           -1.18550763633111       -3.58283253230062       -1.73484030328922
H           -0.85971194035362       -2.33010860668004       -0.54317718490695
H           -2.90046214629610       -2.23488166196553       -2.80924625138684
H           -2.50770623034310       -0.83749579593669       -1.81879894885582
H           -4.60646423547310       -2.03371012684317       -1.19578793531779
H           -3.54691124703901       -4.34410572756204       -1.58938912926887
H           -2.86060983662009       -4.19516939823596        0.02963594760801
H           -5.16224856229836       -3.99993371560662        0.98161144616377
H           -5.84004555232681       -4.06332605672049       -0.64776255014018
H           -5.00278972365056       -5.46239353940507        0.02072420206694
H           -4.10730993989715       -2.08566685136030        1.30420665227813
H           -2.41939679776983       -1.75599424807727        0.90458906450909
H           -6.31666737978412       -1.42683233726267        0.63335440858106
H           -8.24540265140541        2.38578038090163        0.24604921938652
H           -6.05813021318149        3.53458744512102        0.09247538896650
H           -3.39839621668369        4.16143182564716       -0.02414230917055
H           -0.92697713257392        4.12202218289564       -0.06519582946061
H            3.31833593665528        4.08404089719192       -0.37130084408425
H            5.77299480004039        4.14524953094046       -0.49374516204024
H            7.93685709041731        2.99558943617331       -0.34247670915034
H            9.25687615003229        0.95595831094829        0.05619326430000
H            9.36347017172273       -1.44795425996202        0.60150130188504
H            8.21945226006521       -3.56250708495131        1.13420249461648
H            5.76075327855599       -3.65199030393407        1.25974970799001
H            3.57683274764799       -2.51031414481360        1.10087493780132
H            2.26247848258843       -0.46238794922611        0.69388584493922
H           -0.90789736380949       -0.14332367161250        0.44322339717451
