73
 energy: -105.729863460196 gnorm: 0.000137198095 xtb: 6.7.1 (edcfbbe)
C           -2.56407662665002        5.57169864217879       -1.08574925859274
C           -3.02045445149318        4.46359161686471       -2.02896831591405
C           -3.56595532871200        3.23160894543059       -1.30202088301105
C           -2.48060138064501        2.47094472978847       -0.54049814274943
C           -2.93426694189451        1.15038612992936        0.09941444021866
C           -4.07152924083090        1.31091289655524        1.11491108902653
C           -3.69953490430764        2.18450106750788        2.30814181026909
C           -3.32638776495476        0.12744309538556       -0.98463978558613
N           -3.39790586020655       -1.21747532419546       -0.47569173885475
C           -4.53292930837572       -1.90975311320588       -0.14157013949545
C           -5.86186853189056       -1.52539475327008       -0.21755448676461
C           -6.82715825310705       -2.44554562298252        0.18761926142680
C           -8.18853330916664       -2.08530600529307        0.12382474013616
N           -9.29847390633741       -1.79248171665045        0.07138216321251
C           -6.48026080342823       -3.72366767493195        0.65933426798587
C           -5.15879660294555       -4.10342020245741        0.73091343304921
C           -4.17621467878194       -3.20320135831613        0.33192044951141
C           -2.74888493980367       -3.27130066836035        0.27527763004848
C           -1.82268133234911       -4.26247294200884        0.59011053967572
C           -0.48480166600763       -4.00193843143753        0.40672378801178
C           -0.05056141913559       -2.75596961676305       -0.08311266064199
C            1.33248356951603       -2.52276246610415       -0.24237117546209
C            2.51849891538800       -2.31743981846960       -0.36133716418271
C            3.90511399843572       -2.11314688432638       -0.50830405993435
C            4.67344081573190       -3.08419785839689       -1.15630487840941
C            6.03155508177689       -2.92088079799327       -1.31558199142444
C            6.68094034189705       -1.78346554775893       -0.82524161933273
C            8.08546090949077       -1.59172469292800       -0.96744124293278
C            8.69743065385753       -0.48812392465727       -0.47682405720078
C            7.95954243658744        0.52671377167812        0.20132117024997
C            8.57075301352684        1.66990545036454        0.72019092519536
C            7.82528963287504        2.63493055775737        1.37333111462632
C            6.45855566528773        2.48646087472816        1.52425973765709
C            5.80420815844797        1.35945058866500        1.02211446592016
C            4.39782402848656        1.17075991325121        1.15998339510780
C            3.78463769556480        0.06693042692067        0.67076579243064
C            4.52088493463344       -0.94958196549029       -0.00300599611134
C            5.91877095836749       -0.78996495782878       -0.16031712244975
C            6.55960418863466        0.36467344253718        0.35291233276365
C           -0.96182005398467       -1.75282788702511       -0.40378666205222
C           -2.30991884287969       -2.01935994962770       -0.22458905398603
H           -2.26185752475023        6.44866660074587       -1.65461379288363
H           -3.37370861313670        5.86103396900112       -0.41841254550474
H           -1.71679509175143        5.25228914493664       -0.48440206679947
H           -2.18634508586206        4.16604091587840       -2.66929015215877
H           -3.80721212761292        4.85873068042068       -2.67697517847305
H           -4.35000739553428        3.55116012123091       -0.61384540845886
H           -4.01913839872469        2.57295205927962       -2.04545507165741
H           -2.07860919547797        3.10991093556659        0.24518510807419
H           -1.66023483368922        2.25243602975532       -1.22991195928973
H           -2.06929316404818        0.74074895699808        0.63541997905133
H           -4.95221922828691        1.72608160460207        0.62159193010682
H           -4.34125024898861        0.31869106175072        1.48604133108781
H           -2.79519682014377        1.81308316582398        2.78636730486596
H           -3.53330988461379        3.21500084942819        2.00632016024068
H           -4.50297884364003        2.17352549647035        3.04184854383906
H           -4.29868413406819        0.38248575131323       -1.40834850512176
H           -2.58601343115611        0.14872048889859       -1.79090404619904
H           -6.16432538616689       -0.55116847569743       -0.56998293368787
H           -7.26654853565467       -4.39888234654408        0.96294944599467
H           -4.88854615461172       -5.08425564681355        1.09103720455056
H           -2.15190564796492       -5.21803814106845        0.96964081375512
H            0.25655687153089       -4.75114608439040        0.64299897072693
H            4.18310157662489       -3.96917369423354       -1.53685086331664
H            6.60983959666505       -3.68020059755333       -1.82287824922080
H            8.65386244048374       -2.35646815935377       -1.47840873993849
H            9.76425835538179       -0.35315336200712       -0.58859421689428
H            9.63834949811679        1.79443289089980        0.60594838044690
H            8.31540249024731        3.51323971508291        1.76899653366857
H            5.88359772653959        3.24568434077948        2.03539513816246
H            3.82888013068787        1.93541026641125        1.67013495494779
H            2.71854960094634       -0.07108579362174        0.78293647771217
H           -0.60959839195503       -0.80625971303187       -0.78348265905266
