  42
  -77.0353631800000       0.186065908891589      !
 N          8.1139730583        0.7393373279       -0.0785878152
 C          6.9691021733        0.7169648776       -0.0455683200
 C          5.5540166353        0.6877712484        0.0036265184
 C          4.9469911614        1.9661198392       -0.0252812258
 N          4.4845831317        3.0104849796       -0.1145509731
 C          4.8864038905       -0.4896729687       -0.0170908549
 C          3.4520798600       -0.6561837947        0.0490511743
 C          2.8307231535       -1.6823259255       -0.6774945223
 F          3.6077846190       -2.4804191057       -1.4328219179
 C          1.4703051446       -1.8847061841       -0.6846059083
 C          0.6412569968       -1.0561660151        0.0737283188
 C         -0.8078862558       -1.2770925337        0.0980569134
 C         -1.2765357351       -2.5694062360        0.3327058483
 C         -2.6229730702       -2.8342393275        0.4502365626
 C         -3.5637973063       -1.8092170839        0.3273810267
 C         -4.9610351239       -2.0476369760        0.4709810280
 C         -5.8605247240       -1.0446375701        0.3442179472
 C         -5.4431111996        0.2869270477        0.0531482751
 C         -6.3540168802        1.3360201766       -0.0840391925
 C         -5.9202782578        2.6168545655       -0.3741203900
 C         -4.5731600555        2.8818955777       -0.5380152531
 C         -3.6266484701        1.8642285512       -0.4055429357
 C         -2.2330198927        2.0932737390       -0.5883961005
 C         -1.3276111807        1.0982894218       -0.4368540084
 C         -1.7264589440       -0.2240887759       -0.0791770107
 C         -3.1135546025       -0.4946083560        0.0479200705
 C         -4.0589055326        0.5504499393       -0.1008572766
 C          1.2286164061       -0.0602382497        0.8554729041
 C          2.5931082468        0.1245033683        0.8350170283
 F          3.1205050351        1.0378658955        1.6666211095
 H          5.4644926283       -1.3982856939       -0.1393970651
 H          1.0572279115       -2.6725867836       -1.2945555424
 H         -0.5607550012       -3.3683529924        0.4636334295
 H         -2.9602433977       -3.8404475162        0.6515001201
 H         -5.2836459212       -3.0562348909        0.6863846519
 H         -6.9185232660       -1.2334869795        0.4574332502
 H         -7.4085874255        1.1359264894        0.0398489745
 H         -6.6399132611        3.4157551360       -0.4762593833
 H         -4.2401646344        3.8829867264       -0.7709375214
 H         -1.9103013299        3.0877657855       -0.8614722332
 H         -0.2799256417        1.2951160854       -0.6089351884
 H          0.6288151033        0.5563699209        1.5061676568
  42
  -77.0351335300000       0.145924084087146      !
 N          8.1828330162        1.1239111280        0.0370781435
 C          7.1353040538        0.6605344454        0.0230359297
 C          5.8403781938        0.0871472486       -0.0014239217
 C          5.8367380231       -1.3283471928        0.0027417856
 N          5.8696455674       -2.4713875734        0.0734969798
 C          4.7393412049        0.8716840612        0.0624210795
 C          3.3651878012        0.4235957479        0.0267190349
 C          2.8887736515       -0.6358405924       -0.7565321470
 F          3.7284497851       -1.2454677306       -1.6083748549
 C          1.5688625535       -1.0300618264       -0.7514373002
 C          0.6378294269       -0.3650761931        0.0457396997
 C         -0.7546104941       -0.8242553369        0.0919426034
 C         -0.9886738310       -2.1764491274        0.3393513891
 C         -2.2674513888       -2.6699024517        0.4743217672
 C         -3.3731171755       -1.8252768716        0.3533924129
 C         -4.7064920189       -2.3026081916        0.5084381278
 C         -5.7680169669       -1.4734667543        0.3791859479
 C         -5.5912341670       -0.0921080030        0.0749353314
 C         -6.6723213019        0.7796356177       -0.0677759205
 C         -6.4707396723        2.1138445575       -0.3707609908
 C         -5.1913581241        2.6095616900       -0.5413923729
 C         -4.0807879363        1.7747867474       -0.4046440533
 C         -2.7493621389        2.2427198947       -0.5959251930
 C         -1.6835944928        1.4217909926       -0.4456678952
 C         -1.8431512047        0.0520899348       -0.0794124099
 C         -3.1610392279       -0.4545726032        0.0617735507
 C         -4.2751190481        0.4081673981       -0.0880194787
 C          1.0708542231        0.7113036102        0.8227252916
 C          2.3935424624        1.0866649516        0.7907903394
 F          2.7909614198        2.1188002275        1.5580236430
 H          4.8854162413        1.9370211758        0.1997107611
 H          1.2650843809       -1.8420755161       -1.3929804507
 H         -0.1426855417       -2.8371590722        0.4634971159
 H         -2.4223360783       -3.7178249378        0.6850857334
 H         -4.8467743962       -3.3500473907        0.7337684959
 H         -6.7761035237       -1.8433505219        0.5003424303
 H         -7.6750560952        0.3986744706        0.0615052354
 H         -7.3195326800        2.7731852696       -0.4775293531
 H         -5.0400689453        3.6515687583       -0.7836438968
 H         -2.6077345357        3.2767773594       -0.8764393084
 H         -0.6865747940        1.7955510430       -0.6264313179
 H          0.3868959684        1.2402415838        1.4674934597
  42
  -77.0351323600000       0.145743529030995      !
 N          8.1825611121        0.8678405157       -0.6921266008
 C          7.1349558912        0.5319097656       -0.3726545992
 C          5.8397951372        0.1225986629        0.0290319618
 C          5.8332791078       -0.8834648260        1.0244306253
 N          5.8633672822       -1.7420195971        1.7825867125
 C          4.7415121465        0.6174452060       -0.5881887136
 C          3.3662453136        0.3076276085       -0.2684352481
 C          2.4120325201        0.2245883316       -1.2932714392
 F          2.8277152653        0.4164056746       -2.5591168846
 C          1.0890607680       -0.0789148086       -1.0717427937
 C          0.6369508670       -0.2945431905        0.2317665522
 C         -0.7568257478       -0.6624206623        0.5031873777
 C         -0.9946293857       -1.7914142070        1.2863408588
 C         -2.2740025306       -2.2417440247        1.5257978529
 C         -3.3769187636       -1.5673694004        0.9972534819
 C         -4.7106614069       -2.0198658511        1.2121339012
 C         -5.7696730769       -1.3501313823        0.7012665415
 C         -5.5898018736       -0.1618685551       -0.0653296592
 C         -6.6683106850        0.5471994620       -0.5974046081
 C         -6.4638918367        1.7012017667       -1.3315577733
 C         -5.1842084869        2.1771780991       -1.5496331274
 C         -4.0761974294        1.4989956720       -1.0385211049
 C         -2.7450648520        1.9715030439       -1.2200157696
 C         -1.6816354790        1.2938698609       -0.7277461000
 C         -1.8431116206        0.0692282523       -0.0136981593
 C         -3.1616304659       -0.3950093503        0.2303593003
 C         -4.2732642966        0.3121904150       -0.2913047404
 C          1.5503639205       -0.1915326281        1.2805219810
 C          2.8713833053        0.1054508213        1.0268271455
 F          3.6921860549        0.2852681204        2.0739040712
 H          4.8924825230        1.2772357696       -1.4347699240
 H          0.4199157652       -0.1689631382       -1.9128793827
 H         -0.1505492656       -2.3398021976        1.6793563297
 H         -2.4314623983       -3.1296511148        2.1202891265
 H         -4.8533129262       -2.9172079299        1.7969683615
 H         -6.7780386143       -1.7010857323        0.8677585392
 H         -7.6713562338        0.1828816880       -0.4283794301
 H         -7.3107393632        2.2365064762       -1.7350789835
 H         -5.0306150707        3.0825153789       -2.1189655464
 H         -2.6017173275        2.8984660541       -1.7568274922
 H         -0.6854311437        1.6914448467       -0.8535484669
 H          1.2315401903       -0.3157883234        2.3034094597
  42
  -77.0350748400000       0.137137086815848      !
 N          8.1578635821        0.5456252249       -0.7518753650
 C          7.0650816900        0.5191428317       -0.4094385011
 C          5.7168755374        0.4768560918        0.0223699651
 C          5.4377249677        1.3129160249        1.1297323209
 N          5.2320355115        2.0487497727        1.9834407553
 C          4.7986614155       -0.2470103162       -0.6592322608
 C          3.4036592814       -0.4047129049       -0.3137004604
 C          2.4375312260       -0.4960343273       -1.3265990301
 F          2.8532554571       -0.4172378193       -2.6044812361
 C          1.0921346100       -0.6328236802       -1.0768700019
 C          0.6379145984       -0.7226416042        0.2406704128
 C         -0.7849296461       -0.9217221387        0.5372825438
 C         -1.1426260681       -1.9839066445        1.3667232779
 C         -2.4628683569       -2.2790289330        1.6255668644
 C         -3.4869500520       -1.5097135255        1.0689352338
 C         -4.8616982934       -1.8040844417        1.2999322722
 C         -5.8422843362       -1.0443053888        0.7593350926
 C         -5.5354019254        0.0849854482       -0.0546669544
 C         -6.5310381607        0.8851903645       -0.6178833574
 C         -6.2031518947        1.9797841663       -1.3969510119
 C         -4.8795920960        2.3041879231       -1.6307618905
 C         -3.8512154710        1.5296770185       -1.0909805742
 C         -2.4767373743        1.8447745732       -1.2903865701
 C         -1.4927305040        1.0733261671       -0.7717618295
 C         -1.7862392451       -0.0955762550       -0.0081701296
 C         -3.1467487755       -0.4005762235        0.2547006005
 C         -4.1754701928        0.4027371994       -0.2968991720
 C          1.5743547263       -0.6916967530        1.2730967706
 C          2.9135195077       -0.5285689152        0.9929846799
 F          3.7833412612       -0.5686759206        2.0149430160
 H          5.1148363877       -0.7294223254       -1.5769058805
 H          0.4047224460       -0.6993133534       -1.9055268306
 H         -0.3633598195       -2.6070248577        1.7815549010
 H         -2.7148994637       -3.1182195708        2.2571700185
 H         -5.1002904723       -2.6563208190        1.9199288235
 H         -6.8824309931       -1.2768328519        0.9364771503
 H         -7.5675684533        0.6394852762       -0.4370994485
 H         -6.9873216203        2.5882364449       -1.8230379723
 H         -4.6291611255        3.1641747989       -2.2349722036
 H         -2.2338530721        2.7281012350       -1.8636867900
 H         -0.4589944663        1.3516072708       -0.9142156617
 H          1.2645558656       -0.7808649757        2.3024629794
  42
  -77.0350660700000       0.135870291336953      !
 N          8.1353314349        0.9278480355        0.3897230381
 C          7.0445697551        0.6971745918        0.1262310047
 C          5.6989884895        0.4032020087       -0.2034150014
 C          5.4045983496        0.4953636364       -1.5851512412
 N          5.1796823779        0.6443099975       -2.6986377568
 C          4.7897537006        0.1523413008        0.7669504743
 C          3.3980616857       -0.1836909567        0.5608913568
 C          2.9225868574       -1.0143033987       -0.4620363446
 F          3.8049308800       -1.6121865534       -1.2787629635
 C          1.5859572948       -1.3082431635       -0.6205975369
 C          0.6382114893       -0.7595698692        0.2423167013
 C         -0.7837210504       -1.0828556580        0.0798820110
 C         -1.1479338888       -2.4248223935       -0.0214147263
 C         -2.4691966190       -2.8051463668       -0.1047386701
 C         -3.4870203780       -1.8488680890       -0.1020467353
 C         -4.8630772564       -2.2124714639       -0.1667676759
 C         -5.8373735288       -1.2734559267       -0.1709991352
 C         -5.5221265248        0.1158014895       -0.1189584098
 C         -6.5111014445        1.1011318167       -0.1268609690
 C         -6.1749000118        2.4419056288       -0.0833715931
 C         -4.8494075384        2.8323264141       -0.0345434878
 C         -3.8276434965        1.8812102975       -0.0211826226
 C         -2.4507652684        2.2443629839        0.0056080262
 C         -1.4736706026        1.3079966745        0.0332289829
 C         -1.7773811978       -0.0860377241        0.0450069306
 C         -3.1389087964       -0.4764377160       -0.0383740645
 C         -4.1606161655        0.5051791452       -0.0583299264
 C          1.0780235708        0.0449602353        1.2953840581
 C          2.4216343617        0.2986890662        1.4443791800
 F          2.8244349814        1.0736250624        2.4686818754
 H          5.1068794590        0.2506302068        1.7986753342
 H          1.2861559006       -1.9546431080       -1.4303745862
 H         -0.3738860342       -3.1784166232        0.0034592065
 H         -2.7270914448       -3.8523615679       -0.1638305074
 H         -5.1079014825       -3.2639876705       -0.2123195022
 H         -6.8788011476       -1.5579299822       -0.2186704220
 H         -7.5489985730        0.8036106254       -0.1679443579
 H         -6.9538628430        3.1900282759       -0.0910553016
 H         -4.5922998832        3.8814017409       -0.0074477130
 H         -2.2002046089        3.2955584248       -0.0057345035
 H         -0.4371272454        1.6110935176        0.0245569501
 H          0.3806289210        0.4499885425        2.0117728480
  42
  -77.0349872400000       0.124996181785624      !
 N          8.1621638850        0.7809761080       -0.4483997616
 C          7.0620957185        0.6396009668       -0.1625067561
 C          5.6999365443        0.4746819360        0.1880960471
 C          5.3974621121        0.8388067017        1.5221211381
 N          5.1987532707        1.0815619348        2.6241371496
 C          4.8259423881       -0.0755225934       -0.6863283718
 C          3.4106266985       -0.2768463580       -0.4675831862
 C          2.7789655695       -1.4196241434       -0.9790639301
 F          3.5311216794       -2.3071960939       -1.6554391379
 C          1.4426498051       -1.6884357330       -0.7950208913
 C          0.6407113564       -0.7771466874       -0.1066514133
 C         -0.7788042163       -1.0678194852        0.1245296469
 C         -1.1141931384       -2.2964917043        0.6914880493
 C         -2.4175637114       -2.6063862021        1.0119524402
 C         -3.4473111131       -1.6958812884        0.7651164663
 C         -4.8011602232       -1.9775818500        1.1081306891
 C         -5.7886757875       -1.0876648289        0.8554471894
 C         -5.5119155336        0.1619570468        0.2277833963
 C         -6.5159605922        1.0923432690       -0.0464976909
 C         -6.2184919819        2.2936923697       -0.6635909486
 C         -4.9180956713        2.5949898223       -1.0239311725
 C         -3.8818060424        1.6961635595       -0.7652237383
 C         -2.5338181236        1.9610861272       -1.1406971596
 C         -1.5391387666        1.0849431378       -0.8665893205
 C         -1.7931499918       -0.1409883176       -0.1823052428
 C         -3.1355344792       -0.4572830830        0.1506613631
 C         -4.1739598295        0.4656814536       -0.1278813607
 C          1.2251393311        0.3896063808        0.3858334209
 C          2.5719375072        0.6194033515        0.2078649183
 F          3.0763694548        1.7873758643        0.6377870945
 H          5.2160598944       -0.4447442094       -1.6276739382
 H          1.0234101986       -2.5929731713       -1.2069462063
 H         -0.3249369803       -2.9995552093        0.9162914024
 H         -2.6499655291       -3.5571630685        1.4687645945
 H         -5.0179508590       -2.9254301296        1.5795166736
 H         -6.8124790796       -1.3080985874        1.1216476205
 H         -7.5349100237        0.8627383103        0.2299358003
 H         -7.0086919358        3.0009748543       -0.8681980394
 H         -4.6922458406        3.5325958347       -1.5110107550
 H         -2.3214577016        2.8835867993       -1.6620403543
 H         -0.5301185771        1.2987321207       -1.1867754816
 H          0.6392301035        1.1161359614        0.9262741774
  42
  -77.0349816800000       0.124262918051844      !
 N          8.1527710255        0.9649550440        0.1207097527
 C          7.0607126138        0.6783989023       -0.0738225298
 C          5.7088521116        0.3328657522       -0.3179960753
 C          5.4480899030       -0.0740555579       -1.6484984912
 N          5.2862267823       -0.4584189648       -2.7156112826
 C          4.8087092050        0.3229275864        0.6925838086
 C          3.3991201259        0.0193356426        0.5837643437
 C          2.5790365759        0.3973140066       -0.4877188298
 F          3.0971804152        1.1481863770       -1.4732092622
 C          1.2348626391        0.0983011037       -0.5392757518
 C          0.6334918674       -0.6143437470        0.4979569172
 C         -0.7858314247       -0.9824395047        0.4442068335
 C         -1.1268785647       -2.3196300802        0.6423860288
 C         -2.4313525334       -2.7500391701        0.5394648419
 C         -3.4570418098       -1.8496734532        0.2434028906
 C         -4.8126541197       -2.2680339420        0.1119077449
 C         -5.7963418706       -1.3820998975       -0.1683616212
 C         -5.5132658201        0.0050286407       -0.3352156821
 C         -6.5129676417        0.9363784735       -0.6219426829
 C         -6.2094799847        2.2772872531       -0.7717767994
 C         -4.9073967854        2.7219800177       -0.6356295092
 C         -3.8756072988        1.8255545255       -0.3518083015
 C         -2.5267095599        2.2485493823       -0.1797330987
 C         -1.5365864602        1.3630854192        0.0806691659
 C         -1.7956312993       -0.0361838906        0.1842156209
 C         -3.1393207233       -0.4786987043        0.0748278249
 C         -4.1735429792        0.4489200637       -0.2043629779
 C          1.4175100043       -1.0022731654        1.5855695367
 C          2.7513437959       -0.6687246101        1.6201966183
 F          3.4848901304       -1.0423232384        2.6849517885
 H          5.1722840421        0.5192895844        1.6947827970
 H          0.6644614870        0.4096365571       -1.4002556693
 H         -0.3410628890       -3.0335339743        0.8439152738
 H         -2.6680053163       -3.7946614781        0.6788773545
 H         -5.0341722945       -3.3176009885        0.2423784790
 H         -6.8217785008       -1.7081722895       -0.2679407441
 H         -7.5332952101        0.5966856620       -0.7265096640
 H         -6.9962349357        2.9831353710       -0.9937554262
 H         -4.6766666372        3.7715494401       -0.7476236627
 H         -2.3099103639        3.3047147595       -0.2533374788
 H         -0.5275071222        1.7152025798        0.2355996906
 H          0.9853996191       -1.5403468472        2.4145697913
