  42
        -77.03536318
 N          8.1139730583        0.7393373279       -0.0785878152
 C          6.9691021733        0.7169648776       -0.0455683200
 C          5.5540166353        0.6877712484        0.0036265184
 C          4.9469911614        1.9661198392       -0.0252812258
 N          4.4845831317        3.0104849796       -0.1145509731
 C          4.8864038905       -0.4896729687       -0.0170908549
 C          3.4520798600       -0.6561837947        0.0490511743
 C          2.8307231535       -1.6823259255       -0.6774945223
 F          3.6077846190       -2.4804191057       -1.4328219179
 C          1.4703051446       -1.8847061841       -0.6846059083
 C          0.6412569968       -1.0561660151        0.0737283188
 C         -0.8078862558       -1.2770925337        0.0980569134
 C         -1.2765357351       -2.5694062360        0.3327058483
 C         -2.6229730702       -2.8342393275        0.4502365626
 C         -3.5637973063       -1.8092170839        0.3273810267
 C         -4.9610351239       -2.0476369760        0.4709810280
 C         -5.8605247240       -1.0446375701        0.3442179472
 C         -5.4431111996        0.2869270477        0.0531482751
 C         -6.3540168802        1.3360201766       -0.0840391925
 C         -5.9202782578        2.6168545655       -0.3741203900
 C         -4.5731600555        2.8818955777       -0.5380152531
 C         -3.6266484701        1.8642285512       -0.4055429357
 C         -2.2330198927        2.0932737390       -0.5883961005
 C         -1.3276111807        1.0982894218       -0.4368540084
 C         -1.7264589440       -0.2240887759       -0.0791770107
 C         -3.1135546025       -0.4946083560        0.0479200705
 C         -4.0589055326        0.5504499393       -0.1008572766
 C          1.2286164061       -0.0602382497        0.8554729041
 C          2.5931082468        0.1245033683        0.8350170283
 F          3.1205050351        1.0378658955        1.6666211095
 H          5.4644926283       -1.3982856939       -0.1393970651
 H          1.0572279115       -2.6725867836       -1.2945555424
 H         -0.5607550012       -3.3683529924        0.4636334295
 H         -2.9602433977       -3.8404475162        0.6515001201
 H         -5.2836459212       -3.0562348909        0.6863846519
 H         -6.9185232660       -1.2334869795        0.4574332502
 H         -7.4085874255        1.1359264894        0.0398489745
 H         -6.6399132611        3.4157551360       -0.4762593833
 H         -4.2401646344        3.8829867264       -0.7709375214
 H         -1.9103013299        3.0877657855       -0.8614722332
 H         -0.2799256417        1.2951160854       -0.6089351884
 H          0.6288151033        0.5563699209        1.5061676568
  42
        -77.03513353
 N          8.1828330162        1.1239111280        0.0370781435
 C          7.1353040538        0.6605344454        0.0230359297
 C          5.8403781938        0.0871472486       -0.0014239217
 C          5.8367380231       -1.3283471928        0.0027417856
 N          5.8696455674       -2.4713875734        0.0734969798
 C          4.7393412049        0.8716840612        0.0624210795
 C          3.3651878012        0.4235957479        0.0267190349
 C          2.8887736515       -0.6358405924       -0.7565321470
 F          3.7284497851       -1.2454677306       -1.6083748549
 C          1.5688625535       -1.0300618264       -0.7514373002
 C          0.6378294269       -0.3650761931        0.0457396997
 C         -0.7546104941       -0.8242553369        0.0919426034
 C         -0.9886738310       -2.1764491274        0.3393513891
 C         -2.2674513888       -2.6699024517        0.4743217672
 C         -3.3731171755       -1.8252768716        0.3533924129
 C         -4.7064920189       -2.3026081916        0.5084381278
 C         -5.7680169669       -1.4734667543        0.3791859479
 C         -5.5912341670       -0.0921080030        0.0749353314
 C         -6.6723213019        0.7796356177       -0.0677759205
 C         -6.4707396723        2.1138445575       -0.3707609908
 C         -5.1913581241        2.6095616900       -0.5413923729
 C         -4.0807879363        1.7747867474       -0.4046440533
 C         -2.7493621389        2.2427198947       -0.5959251930
 C         -1.6835944928        1.4217909926       -0.4456678952
 C         -1.8431512047        0.0520899348       -0.0794124099
 C         -3.1610392279       -0.4545726032        0.0617735507
 C         -4.2751190481        0.4081673981       -0.0880194787
 C          1.0708542231        0.7113036102        0.8227252916
 C          2.3935424624        1.0866649516        0.7907903394
 F          2.7909614198        2.1188002275        1.5580236430
 H          4.8854162413        1.9370211758        0.1997107611
 H          1.2650843809       -1.8420755161       -1.3929804507
 H         -0.1426855417       -2.8371590722        0.4634971159
 H         -2.4223360783       -3.7178249378        0.6850857334
 H         -4.8467743962       -3.3500473907        0.7337684959
 H         -6.7761035237       -1.8433505219        0.5003424303
 H         -7.6750560952        0.3986744706        0.0615052354
 H         -7.3195326800        2.7731852696       -0.4775293531
 H         -5.0400689453        3.6515687583       -0.7836438968
 H         -2.6077345357        3.2767773594       -0.8764393084
 H         -0.6865747940        1.7955510430       -0.6264313179
 H          0.3868959684        1.2402415838        1.4674934597
  42
        -77.03507484
 N          8.1578635821        0.5456252249       -0.7518753650
 C          7.0650816900        0.5191428317       -0.4094385011
 C          5.7168755374        0.4768560918        0.0223699651
 C          5.4377249677        1.3129160249        1.1297323209
 N          5.2320355115        2.0487497727        1.9834407553
 C          4.7986614155       -0.2470103162       -0.6592322608
 C          3.4036592814       -0.4047129049       -0.3137004604
 C          2.4375312260       -0.4960343273       -1.3265990301
 F          2.8532554571       -0.4172378193       -2.6044812361
 C          1.0921346100       -0.6328236802       -1.0768700019
 C          0.6379145984       -0.7226416042        0.2406704128
 C         -0.7849296461       -0.9217221387        0.5372825438
 C         -1.1426260681       -1.9839066445        1.3667232779
 C         -2.4628683569       -2.2790289330        1.6255668644
 C         -3.4869500520       -1.5097135255        1.0689352338
 C         -4.8616982934       -1.8040844417        1.2999322722
 C         -5.8422843362       -1.0443053888        0.7593350926
 C         -5.5354019254        0.0849854482       -0.0546669544
 C         -6.5310381607        0.8851903645       -0.6178833574
 C         -6.2031518947        1.9797841663       -1.3969510119
 C         -4.8795920960        2.3041879231       -1.6307618905
 C         -3.8512154710        1.5296770185       -1.0909805742
 C         -2.4767373743        1.8447745732       -1.2903865701
 C         -1.4927305040        1.0733261671       -0.7717618295
 C         -1.7862392451       -0.0955762550       -0.0081701296
 C         -3.1467487755       -0.4005762235        0.2547006005
 C         -4.1754701928        0.4027371994       -0.2968991720
 C          1.5743547263       -0.6916967530        1.2730967706
 C          2.9135195077       -0.5285689152        0.9929846799
 F          3.7833412612       -0.5686759206        2.0149430160
 H          5.1148363877       -0.7294223254       -1.5769058805
 H          0.4047224460       -0.6993133534       -1.9055268306
 H         -0.3633598195       -2.6070248577        1.7815549010
 H         -2.7148994637       -3.1182195708        2.2571700185
 H         -5.1002904723       -2.6563208190        1.9199288235
 H         -6.8824309931       -1.2768328519        0.9364771503
 H         -7.5675684533        0.6394852762       -0.4370994485
 H         -6.9873216203        2.5882364449       -1.8230379723
 H         -4.6291611255        3.1641747989       -2.2349722036
 H         -2.2338530721        2.7281012350       -1.8636867900
 H         -0.4589944663        1.3516072708       -0.9142156617
 H          1.2645558656       -0.7808649757        2.3024629794
  42
        -77.03498724
 N          8.1621638850        0.7809761080       -0.4483997616
 C          7.0620957185        0.6396009668       -0.1625067561
 C          5.6999365443        0.4746819360        0.1880960471
 C          5.3974621121        0.8388067017        1.5221211381
 N          5.1987532707        1.0815619348        2.6241371496
 C          4.8259423881       -0.0755225934       -0.6863283718
 C          3.4106266985       -0.2768463580       -0.4675831862
 C          2.7789655695       -1.4196241434       -0.9790639301
 F          3.5311216794       -2.3071960939       -1.6554391379
 C          1.4426498051       -1.6884357330       -0.7950208913
 C          0.6407113564       -0.7771466874       -0.1066514133
 C         -0.7788042163       -1.0678194852        0.1245296469
 C         -1.1141931384       -2.2964917043        0.6914880493
 C         -2.4175637114       -2.6063862021        1.0119524402
 C         -3.4473111131       -1.6958812884        0.7651164663
 C         -4.8011602232       -1.9775818500        1.1081306891
 C         -5.7886757875       -1.0876648289        0.8554471894
 C         -5.5119155336        0.1619570468        0.2277833963
 C         -6.5159605922        1.0923432690       -0.0464976909
 C         -6.2184919819        2.2936923697       -0.6635909486
 C         -4.9180956713        2.5949898223       -1.0239311725
 C         -3.8818060424        1.6961635595       -0.7652237383
 C         -2.5338181236        1.9610861272       -1.1406971596
 C         -1.5391387666        1.0849431378       -0.8665893205
 C         -1.7931499918       -0.1409883176       -0.1823052428
 C         -3.1355344792       -0.4572830830        0.1506613631
 C         -4.1739598295        0.4656814536       -0.1278813607
 C          1.2251393311        0.3896063808        0.3858334209
 C          2.5719375072        0.6194033515        0.2078649183
 F          3.0763694548        1.7873758643        0.6377870945
 H          5.2160598944       -0.4447442094       -1.6276739382
 H          1.0234101986       -2.5929731713       -1.2069462063
 H         -0.3249369803       -2.9995552093        0.9162914024
 H         -2.6499655291       -3.5571630685        1.4687645945
 H         -5.0179508590       -2.9254301296        1.5795166736
 H         -6.8124790796       -1.3080985874        1.1216476205
 H         -7.5349100237        0.8627383103        0.2299358003
 H         -7.0086919358        3.0009748543       -0.8681980394
 H         -4.6922458406        3.5325958347       -1.5110107550
 H         -2.3214577016        2.8835867993       -1.6620403543
 H         -0.5301185771        1.2987321207       -1.1867754816
 H          0.6392301035        1.1161359614        0.9262741774
