  53
  -89.1666483200000       0.154852973527766      !
 C         -2.1385712649        4.8679249083       -0.0515369211
 C         -3.5262463296        4.7618138145       -0.1309087168
 C         -4.1610571573        3.5283225734       -0.1337180798
 C         -3.3599819381        2.4095065685       -0.0570929545
 C         -1.9379846035        2.5032156215        0.0267673323
 C         -1.3274196631        3.7542303699        0.0276522618
 N         -1.3665993575        1.2605852372        0.1015430691
 C         -2.3848454645        0.4314432292        0.0553522078
 N         -2.5582125027       -0.9207083433        0.0779812728
 C         -1.5414414517       -1.8674809620        0.1511335268
 C         -0.2298004743       -1.4822973202        0.0111535540
 C          0.8154817158       -2.4410254061        0.0535832912
 C          2.1823257185       -2.0695101204       -0.0416402075
 C          3.2085105390       -3.0396942326       -0.2836360195
 C          4.5336815580       -2.7150202462       -0.3898548154
 C          4.8921517922       -1.3733092092       -0.2466868073
 O          6.1423270980       -0.8428650030       -0.3097659302
 C          6.0028648478        0.4953423842       -0.1071402094
 C          7.0193187427        1.4338807824       -0.0859100549
 C          6.6600889070        2.7541289278        0.1385134760
 C          5.3345323309        3.1225596672        0.3350079722
 C          4.3176144882        2.1802690499        0.3141772378
 C          4.6533866028        0.8555304163        0.0912530255
 C          3.9101028584       -0.3787153639       -0.0009493556
 C          2.5830879584       -0.7074039343        0.1034608076
 C          0.3747674196       -3.8025767781        0.2168124250
 C         -0.9560419985       -4.0743670110        0.3576023681
 N         -1.9216082008       -3.1533889716        0.3332845149
 C         -3.9284445394       -1.1522945236       -0.0036672354
 C         -4.6466330114       -2.3356494752       -0.0247760032
 C         -6.0265501938       -2.2495216775       -0.0962590466
 C         -6.6797886918       -1.0206809373       -0.1569218481
 C         -5.9759846822        0.1714724211       -0.1444954778
 C         -4.5975627441        0.0963580563       -0.0697737644
 N         -3.6143596520        1.0556696718       -0.0351326285
 H         -1.6902098122        5.8502356924       -0.0531401294
 H         -4.1220374232        5.6599865713       -0.1907082714
 H         -5.2356726221        3.4521206327       -0.1930393715
 H         -0.2543908529        3.8351252154        0.0866917469
 H         -0.0341152277       -0.4451985056       -0.2036699352
 H          2.9253921651       -4.0714883860       -0.4146398966
 H          5.2855844211       -3.4646724300       -0.5815936917
 H          8.0462862942        1.1428185548       -0.2380605795
 H          7.4292294468        3.5114965405        0.1611843773
 H          5.0951352855        4.1608987878        0.5082324505
 H          3.2884203748        2.4662230507        0.4672380958
 H          1.8563457402        0.0585847170        0.3156719279
 H          1.0840414077       -4.6087610719        0.2937293897
 H         -1.3028539555       -5.0854636015        0.5267099814
 H         -4.1297635490       -3.2800158789        0.0170868979
 H         -6.6101932197       -3.1567418589       -0.1124231105
 H         -7.7568921232       -0.9961500361       -0.2200003052
 H         -6.4805454308        1.1231263560       -0.1921800448
  53
  -89.1664685800000       0.128031479601218      !
 C         -2.1372976438        4.8571408836       -0.3241582492
 C         -3.5266005638        4.7554905937       -0.2731692146
 C         -4.1613397078        3.5262139807       -0.1710960080
 C         -3.3586787420        2.4068397319       -0.1237766045
 C         -1.9349052817        2.4964530925       -0.1700956320
 C         -1.3242869219        3.7430885487       -0.2737531691
 N         -1.3616583391        1.2542504895       -0.0992985387
 C         -2.3813477541        0.4289021358       -0.0262941580
 N         -2.5549331880       -0.9215032827        0.0526911252
 C         -1.5365007465       -1.8696284443        0.0790726859
 C         -0.2285325277       -1.4828540252       -0.0896581036
 C          0.8171687601       -2.4426837423       -0.0816625392
 C          2.1836109769       -2.0661634506       -0.1508607642
 C          3.2122358141       -3.0175047239       -0.4510263530
 C          4.5365997114       -2.6827816669       -0.5332053449
 C          4.8915707316       -1.3531486454       -0.2972945360
 O          6.1408921923       -0.8173940751       -0.3167958508
 C          5.9983615235        0.5024467792       -0.0167789317
 C          7.0130841416        1.4377405484        0.0815532914
 C          6.6506350196        2.7363153318        0.4055982251
 C          5.3237272596        3.0871208339        0.6235440726
 C          4.3081627614        2.1485841595        0.5231458028
 C          4.6473186746        0.8456064190        0.1998477813
 C          3.9064057580       -0.3790154523        0.0128469296
 C          2.5797955950       -0.7158615108        0.0863461069
 C          0.3806586415       -3.8081196390        0.0538578360
 C         -0.9462026527       -4.0811254911        0.2236565780
 N         -1.9120819610       -3.1595648839        0.2364396749
 C         -3.9280562864       -1.1483196717        0.0985904853
 C         -4.6492629532       -2.3271760237        0.1819325541
 C         -6.0295408230       -2.2350997409        0.2349952890
 C         -6.6821053866       -1.0050341559        0.1961212788
 C         -5.9763782269        0.1823568887        0.1043104774
 C         -4.5971815381        0.1011822862        0.0537217700
 N         -3.6126016630        1.0560598604       -0.0292341320
 H         -1.6891700447        5.8360411394       -0.4070849323
 H         -4.1237277279        5.6535951488       -0.3158826703
 H         -5.2370922524        3.4533933358       -0.1315989883
 H         -0.2501509687        3.8202268727       -0.3171778689
 H         -0.0352376674       -0.4443367321       -0.3006484302
 H          2.9298778982       -4.0380655198       -0.6527856079
 H          5.2906914474       -3.4154078997       -0.7746085820
 H          8.0414303457        1.1604813074       -0.0864160248
 H          7.4185205896        3.4904485215        0.4908215268
 H          5.0817805380        4.1087092440        0.8758683843
 H          3.2777109529        2.4206928039        0.6928159362
 H          1.8488001837        0.0306342461        0.3472692896
 H          1.0916581169       -4.6159520612        0.0865216691
 H         -1.2913560864       -5.0962994602        0.3708438056
 H         -4.1336037849       -3.2726090363        0.2072733345
 H         -6.6146692258       -3.1388523408        0.3039571679
 H         -7.7602587060       -0.9760293759        0.2337797457
 H         -6.4799315249        1.1351522372        0.0729892075
  53
  -89.1663514100000       0.113101707299566      !
 C         -2.2465233136        4.8853021143        0.3917839376
 C         -3.6174095479        4.7665918359        0.1688258138
 C         -4.2211714460        3.5289981482        0.0037953282
 C         -3.4063850858        2.4191149555        0.0683518579
 C         -2.0015658569        2.5253400560        0.2974585372
 C         -1.4221134455        3.7803840877        0.4587532325
 N         -1.4132749086        1.2877967606        0.3328035031
 C         -2.4056653268        0.4519205701        0.1324945074
 N         -2.5560118082       -0.9002044510        0.0549021898
 C         -1.5401856215       -1.8439340232        0.1865762108
 C         -0.2246142318       -1.4572399764        0.1200336021
 C          0.8196370482       -2.4162453720        0.2258767846
 C          2.1900456437       -2.0604089735        0.1408988354
 C          3.2215101498       -3.0570752762        0.0926339487
 C          4.5518122050       -2.7564692208       -0.0072413069
 C          4.9165808117       -1.4098965122       -0.0665480090
 O          6.1717170756       -0.9002002839       -0.1740906110
 C          6.0356781776        0.4531467594       -0.2003468659
 C          7.0582597461        1.3787534222       -0.3089716455
 C          6.7028372788        2.7186514993       -0.3237877853
 C          5.3747787642        3.1177702326       -0.2331640952
 C          4.3517428276        2.1882003997       -0.1229669350
 C          4.6832992026        0.8440305238       -0.1057637743
 C          3.9336962633       -0.3873902672       -0.0167064793
 C          2.6013885107       -0.6919976919        0.0911506458
 C          0.3637033511       -3.7724713572        0.4034182344
 C         -0.9728321933       -4.0452603595        0.4633596962
 N         -1.9347455392       -3.1253693773        0.3690430457
 C         -3.9058537551       -1.1439364517       -0.1781377261
 C         -4.5931281671       -2.3329104613       -0.3542158417
 C         -5.9592114809       -2.2605996040       -0.5655835964
 C         -6.6275263964       -1.0396351696       -0.6128470941
 C         -5.9534694916        0.1584969107       -0.4464796338
 C         -4.5894852417        0.0968906664       -0.2319173090
 N         -3.6333651606        1.0645388540       -0.0355599337
 H         -1.8223023621        5.8705894429        0.5153424985
 H         -4.2245303441        5.6580165189        0.1250027262
 H         -5.2832633848        3.4421294060       -0.1649755914
 H         -0.3625159185        3.8713039842        0.6327273979
 H         -0.0227124953       -0.4164421851       -0.0664529774
 H          2.9416459396       -4.0967841662        0.1206557342
 H          5.3038784591       -3.5287632882       -0.0453274843
 H          8.0867449042        1.0627681307       -0.3790191794
 H          7.4765663177        3.4668485161       -0.4085573522
 H          5.1377046053        4.1710069729       -0.2496856098
 H          3.3209037168        2.4995778363       -0.0533475287
 H          1.8780224122        0.1031754589        0.1497344519
 H          1.0613939524       -4.5804240653        0.5396694046
 H         -1.3288007692       -5.0534042931        0.6309416091
 H         -4.0649676677       -3.2712488446       -0.3187287059
 H         -6.5190719205       -3.1723247296       -0.7044632297
 H         -7.6920186843       -1.0251755037       -0.7893217031
 H         -6.4698948548        1.1041125527       -0.4858834510
  53
  -89.1663165800000       0.109009011395133      !
 C         -3.8763595365        4.9790963235        0.2455563876
 C         -5.1750316908        4.5117995118        0.0492986777
 C         -5.4486855971        3.1570473124       -0.0712857253
 C         -4.3797967668        2.2910559394        0.0095408714
 C         -3.0448433139        2.7551591765        0.2123161951
 C         -2.7991214766        4.1205770072        0.3292832254
 N         -2.1631851285        1.7086701326        0.2689842511
 C         -2.9130605228        0.6428358134        0.1011992394
 N         -2.7146128160       -0.7048131560        0.0476559403
 C         -1.4887388853       -1.3524145669        0.1614633876
 C         -0.3177805710       -0.6331812292        0.1262470550
 C          0.9358584245       -1.2920139198        0.2038782312
 C          2.1723992706       -0.5935567834        0.1963272213
 C          2.2223963827        0.8215324471        0.4169092363
 C          3.3898962928        1.5335934563        0.4253082274
 C          4.5831128145        0.8398734843        0.2077836912
 O          5.8406163359        1.3550318578        0.1765960674
 C          6.6777609785        0.3115877637       -0.0680474967
 C          8.0554542851        0.3721069881       -0.1815145838
 C          8.7250203353       -0.8146313146       -0.4345900513
 C          8.0425943320       -2.0179612922       -0.5695633359
 C          6.6624860196       -2.0763082656       -0.4549622333
 C          5.9720122984       -0.9030247455       -0.2013835187
 C          4.5819620616       -0.5597496275       -0.0167704575
 C          3.4081051381       -1.2712965645       -0.0218790722
 C          0.8564613733       -2.7277315922        0.2972482040
 C         -0.3624307397       -3.3418257153        0.3396462236
 N         -1.5303475273       -2.7009275386        0.2785656673
 C         -3.9625959084       -1.2879687550       -0.1538926130
 C         -4.3307510757       -2.6159578357       -0.2873084412
 C         -5.6746719449       -2.8967521907       -0.4647347674
 C         -6.6310995315       -1.8855264789       -0.5214148661
 C         -6.2789145606       -0.5523805000       -0.3977402777
 C         -4.9395832295       -0.2617259508       -0.2157298735
 N         -4.2577093363        0.9204766102       -0.0574147742
 H         -3.7133234317        6.0429465246        0.3331044696
 H         -5.9877684616        5.2196810395       -0.0105458976
 H         -6.4561090825        2.8006088819       -0.2203564077
 H         -1.7945044747        4.4802402162        0.4800030133
 H         -0.3880509728        0.4296009217       -0.0354726157
 H          1.3005599882        1.3459161476        0.6074639442
 H          3.4012716648        2.5978149848        0.5991403042
 H          8.5796012139        1.3083195306       -0.0755507815
 H          9.8004767400       -0.8023912008       -0.5290137098
 H          8.5991197586       -2.9217935493       -0.7675369483
 H          6.1352952082       -3.0119899489       -0.5605078231
 H          3.4284804823       -2.3293744559       -0.2203855021
 H          1.7462785922       -3.3243687798        0.4013469583
 H         -0.4425371413       -4.4151504071        0.4536250089
 H         -3.5815866842       -3.3890606522       -0.2470403701
 H         -5.9882987995       -3.9238046176       -0.5685381303
 H         -7.6679983807       -2.1452344106       -0.6699886487
 H         -7.0181611631        0.2311384848       -0.4424975418
  53
  -89.1662142000000       9.781643053292194E-002 !
 C         -2.1732175316        4.8595664174       -0.4460217844
 C         -3.5515062609        4.7592033968       -0.2637793041
 C         -4.1751213291        3.5306140231       -0.1035170631
 C         -3.3724602196        2.4104654079       -0.1305791376
 C         -1.9598244294        2.4987660985       -0.3131082820
 C         -1.3603304522        3.7445207118       -0.4732637807
 N         -1.3843385783        1.2554162377       -0.3042523051
 C         -2.3916760517        0.4315096594       -0.1255091139
 N         -2.5572498001       -0.9176609759       -0.0205451746
 C         -1.5399101018       -1.8692790342       -0.0723075801
 C         -0.2276414585       -1.4739381240       -0.1481291354
 C          0.8186998332       -2.4346122921       -0.1826017789
 C          2.1873695545       -2.0643190394       -0.1747774249
 C          3.2302720689       -3.0291448696       -0.3794500557
 C          4.5594347481       -2.7068124727       -0.3842116840
 C          4.9115577673       -1.3723016819       -0.1699788632
 O          6.1631775246       -0.8445000175       -0.1291759329
 C          6.0116546165        0.4874078055        0.1059130738
 C          7.0253815969        1.4208342376        0.2296555231
 C          6.6529645872        2.7346210123        0.4701752347
 C          5.3174729783        3.1015532446        0.5832387279
 C          4.3031197028        2.1641776173        0.4595643411
 C          4.6520764071        0.8461756561        0.2190291613
 C          3.9153350737       -0.3822682968        0.0372433407
 C          2.5844622786       -0.7076590870        0.0389598710
 C          0.3702322003       -3.8049099805       -0.1585066151
 C         -0.9644894188       -4.0861999133       -0.0888431615
 N         -1.9298508073       -3.1654137867       -0.0750855692
 C         -3.9183161640       -1.1423212611        0.1674397065
 C         -4.6276957202       -2.3189269430        0.3403370519
 C         -5.9988405575       -2.2260975782        0.5047641883
 C         -6.6540611225       -0.9969473757        0.5027918082
 C         -5.9595242539        0.1888908647        0.3358517270
 C         -4.5896411628        0.1064663055        0.1701817003
 N         -3.6172287690        1.0599434247       -0.0130822157
 H         -1.7338003001        5.8381468335       -0.5693851069
 H         -4.1487961002        5.6581665581       -0.2478320735
 H         -5.2426674714        3.4587955641        0.0353425636
 H         -0.2948724542        3.8204156565       -0.6167080788
 H         -0.0279519049       -0.4176320203       -0.1990403863
 H          2.9590354358       -4.0556600934       -0.5617327131
 H          5.3204666471       -3.4530100730       -0.5500417124
 H          8.0601770975        1.1311303929        0.1419904907
 H          7.4197221084        3.4878705119        0.5716780973
 H          5.0674922921        4.1349725438        0.7710626826
 H          3.2661604032        2.4494028136        0.5481021417
 H          1.8503504486        0.0602539535        0.2125883414
 H          1.0716453799       -4.6207701398       -0.1844905822
 H         -1.3175345478       -5.1091730231       -0.0782550618
 H         -4.1101552747       -3.2638039453        0.3403745946
 H         -6.5742991312       -3.1285236799        0.6409293586
 H         -7.7243107623       -0.9668030921        0.6376963204
 H         -6.4643917769        1.1415537837        0.3363458178
  53
  -89.1660982300000       8.651983625601556E-002 !
 C         -2.2731432661        4.8726849487        0.5759030535
 C         -3.6412868771        4.7575709656        0.3351236811
 C         -4.2398353159        3.5241170378        0.1243032907
 C         -3.4225553233        2.4150176513        0.1615830663
 C         -2.0202967514        2.5177483955        0.4074434959
 C         -1.4460575570        3.7684612555        0.6157863979
 N         -1.4281288354        1.2821917244        0.4036207495
 C         -2.4153051878        0.4495043908        0.1639755849
 N         -2.5586571624       -0.8992259827        0.0294287420
 C         -1.5372095816       -1.8431384407        0.1133714839
 C         -0.2247529971       -1.4440781773        0.1682564580
 C          0.8208455463       -2.4033792203        0.2312797302
 C          2.1923466412       -2.0395346304        0.2297353929
 C          3.2229078366       -3.0058366706        0.4814206384
 C          4.5556847848       -2.6990464510        0.4779899989
 C          4.9232688744       -1.3792352704        0.2088649151
 O          6.1819325377       -0.8709885753        0.1451072063
 C          6.0481290953        0.4516482207       -0.1444157344
 C          7.0752904113        1.3634710241       -0.3106746160
 C          6.7218350806        2.6708449142       -0.6068660121
 C          5.3913843502        3.0521043845       -0.7314516014
 C          4.3636017671        2.1363535914       -0.5643087394
 C          4.6931204107        0.8244578648       -0.2689217000
 C          3.9396592397       -0.3855819286       -0.0367542742
 C          2.6043124858       -0.6955349533       -0.0269031799
 C          0.3732340231       -3.7743782200        0.2355966645
 C         -0.9613391759       -4.0594013970        0.1834148362
 N         -1.9263829257       -3.1397034860        0.1540655467
 C         -3.9057569504       -1.1374212992       -0.2280105993
 C         -4.5886315907       -2.3192760187       -0.4610051296
 C         -5.9521155379       -2.2416968625       -0.6860427897
 C         -6.6238839429       -1.0215039430       -0.6907983682
 C         -5.9550940747        0.1698321261       -0.4670563082
 C         -4.5934775520        0.1024451929       -0.2381339815
 N         -3.6434209305        1.0641723013        0.0074412178
 H         -1.8531282786        5.8546100202        0.7352716621
 H         -4.2505900052        5.6483186038        0.3130644346
 H         -5.2998605277        3.4402471685       -0.0585533658
 H         -0.3883736134        3.8560764243        0.8031902474
 H         -0.0247338565       -0.3863597355        0.1637698006
 H          2.9394366684       -4.0202606296        0.7077516538
 H          5.3075250056       -3.4457484099        0.6792221616
 H          8.1058488280        1.0615949713       -0.2138186781
 H          7.4991727292        3.4073937306       -0.7438917959
 H          5.1560307295        4.0801933336       -0.9624172487
 H          3.3309926837        2.4338383620       -0.6622888519
 H          1.8782956391        0.0737868328       -0.2273839649
 H          1.0754914570       -4.5887806993        0.2766514095
 H         -1.3136195020       -5.0824654925        0.2067573195
 H         -4.0578797082       -3.2568493347       -0.4587609992
 H         -6.5073905303       -3.1484546111       -0.8690308026
 H         -7.6866153511       -1.0026707475       -0.8777109254
 H         -6.4732716969        1.1153032788       -0.4724821162
  53
  -89.1660176500000       7.944813097778780E-002 !
 C         -2.3001066893        4.8708026540        0.6493637799
 C         -3.6635706011        4.7544224992        0.3836371650
 C         -4.2540471970        3.5219872658        0.1453102526
 C         -3.4335069309        2.4152826130        0.1806686053
 C         -2.0359430341        2.5192821906        0.4520958113
 C         -1.4697215128        3.7690253083        0.6872331228
 N         -1.4399313334        1.2856082421        0.4443185034
 C         -2.4202394996        0.4529753937        0.1779338529
 N         -2.5571430538       -0.8944419301        0.0263345463
 C         -1.5356001148       -1.8370359259        0.1219703403
 C         -0.2237148380       -1.4370117961        0.1824284354
 C          0.8212633557       -2.3956211058        0.2595132856
 C          2.1931162347       -2.0325750807        0.2584496600
 C          3.2209933917       -2.9932777844        0.5397702080
 C          4.5542258968       -2.6878679575        0.5354458444
 C          4.9243481644       -1.3757401016        0.2340704396
 O          6.1839507720       -0.8711148968        0.1613791566
 C          6.0530419901        0.4438507319       -0.1624068636
 C          7.0821671929        1.3493842444       -0.3496309921
 C          6.7317477178        2.6492373414       -0.6809945165
 C          5.4022464456        3.0293004112       -0.8192439776
 C          4.3724615487        2.1197678534       -0.6312582687
 C          4.6989660895        0.8152924522       -0.3009074177
 C          3.9429800397       -0.3873146457       -0.0402597744
 C          2.6071933889       -0.6957834220       -0.0285120384
 C          0.3743912924       -3.7667813405        0.2738680359
 C         -0.9598554068       -4.0528246278        0.2136882704
 N         -1.9247413805       -3.1336172015        0.1697011237
 C         -3.8983524742       -1.1338462230       -0.2584284243
 C         -4.5725684417       -2.3152996662       -0.5170962896
 C         -5.9319216273       -2.2396136925       -0.7665274195
 C         -6.6074886208       -1.0214253199       -0.7702448294
 C         -5.9470919491        0.1695399076       -0.5206231949
 C         -4.5897422922        0.1040071559       -0.2673934298
 N         -3.6474154608        1.0657039981        0.0066562543
 H         -1.8865750395        5.8516719165        0.8304520479
 H         -4.2757149308        5.6432630926        0.3641437165
 H         -5.3105916503        3.4370623248       -0.0561086874
 H         -0.4159298895        3.8573627872        0.8946591277
 H         -0.0234534987       -0.3792263736        0.1734667402
 H          2.9348404190       -4.0006948954        0.7922829758
 H          5.3043874130       -3.4299282297        0.7591857087
 H          8.1118626919        1.0482493469       -0.2425684824
 H          7.5108436578        3.3805547269       -0.8354979510
 H          5.1691367546        4.0517251373       -1.0768137833
 H          3.3405194503        2.4167416391       -0.7385862728
 H          1.8822538757        0.0684629725       -0.2513578882
 H          1.0770888986       -4.5801887401        0.3272566414
 H         -1.3120567883       -5.0758246310        0.2434186769
 H         -4.0387738189       -3.2512106985       -0.5155473252
 H         -6.4806480333       -3.1459625564       -0.9698901125
 H         -7.6665457559       -1.0037859162       -0.9771191122
 H         -6.4682866871        1.1133709212       -0.5257546534
  53
  -89.1659960900000       7.765606763817923E-002 !
 C         -2.1043270226        4.8387568340        0.5057320735
 C         -3.4680703125        4.7604075238        0.2280640459
 C         -4.1019135966        3.5414622325        0.0370683688
 C         -3.3241083975        2.4072794165        0.1300261565
 C         -1.9268784611        2.4733825407        0.4134683496
 C         -1.3166365724        3.7096896664        0.6026485594
 N         -1.3746592062        1.2203941289        0.4596546462
 C         -2.3799106609        0.4129078236        0.2110149640
 N         -2.5572353185       -0.9334701930        0.0957430835
 C         -1.5522448670       -1.8937290607        0.1945220518
 C         -0.2376257474       -1.5013789945        0.2037362189
 C          0.8099206243       -2.4591861850        0.2610637786
 C          2.1756741551       -2.0813880568        0.2080595686
 C          3.2344813799       -3.0446442326        0.3133714388
 C          4.5604866183       -2.7138095719        0.2482673196
 C          4.8945924559       -1.3696630012        0.0662716600
 O          6.1378311958       -0.8288207219       -0.0356522998
 C          5.9625507086        0.5106072109       -0.2038475267
 C          6.9578852762        1.4595152816       -0.3570022864
 C          6.5595259307        2.7780406221       -0.5171914421
 C          5.2168405876        3.1360831820       -0.5242062900
 C          4.2207758260        2.1838032258       -0.3710872915
 C          4.5962593440        0.8611717003       -0.2100351925
 C          3.8821563256       -0.3805303089       -0.0328067416
 C          2.5557350666       -0.7134880525        0.0380919397
 C          0.3566395067       -3.8265072552        0.3229576201
 C         -0.9807912729       -4.1057537186        0.3204678281
 N         -1.9467262643       -3.1852498983        0.2764668128
 C         -3.9009733048       -1.1387824677       -0.1989936690
 C         -4.6060220643       -2.3069335628       -0.4334170578
 C         -5.9585863000       -2.1968689087       -0.7062419942
 C         -6.5957809786       -0.9592332274       -0.7546211926
 C         -5.9034679192        0.2183414023       -0.5278460830
 C         -4.5526392649        0.1193607880       -0.2527563343
 N         -3.5838761512        1.0596085786        0.0065406076
 H         -1.6560874127        5.8106941255        0.6484985567
 H         -4.0458947196        5.6696191642        0.1603583634
 H         -5.1585140141        3.4872322478       -0.1744219353
 H         -0.2625913363        3.7673569257        0.8199592815
 H         -0.0396955092       -0.4458558767        0.1406130652
 H          2.9801891216       -4.0813511177        0.4590258707
 H          5.3326501485       -3.4622775096        0.3329042610
 H          7.9987423012        1.1784814790       -0.3515816082
 H          7.3116492620        3.5427713059       -0.6399946349
 H          4.9465917514        4.1734638742       -0.6530126298
 H          3.1777005128        2.4604243287       -0.3787703738
 H          1.8151416141        0.0631817276       -0.0396097994
 H          1.0553877780       -4.6423873739        0.3907340119
 H         -1.3354436713       -5.1255892817        0.3945088556
 H         -4.0999037590       -3.2574807534       -0.3975505694
 H         -6.5323035772       -3.0912162920       -0.8933764188
 H         -7.6504013448       -0.9151149433       -0.9792859722
 H         -6.3957231064        1.1768145247       -0.5670687009
  53
  -89.1659120100000       7.104522635341694E-002 !
 C         -2.3382432201        4.8685865529        0.7272527925
 C         -3.6979656778        4.7490101977        0.4439823591
 C         -4.2786689550        3.5171390514        0.1793458909
 C         -3.4524339238        2.4146267557        0.2070382273
 C         -2.0586258116        2.5218183315        0.4967253121
 C         -1.5021421688        3.7708642981        0.7578759707
 N         -1.4557021838        1.2920303164        0.4772781019
 C         -2.4283018293        0.4579465290        0.1870491370
 N         -2.5563266629       -0.8881216724        0.0159269928
 C         -1.5325301452       -1.8274475587        0.1152149968
 C         -0.2220891569       -1.4248055959        0.1943045987
 C          0.8223696205       -2.3816765224        0.2805052195
 C          2.1947469688       -2.0183480991        0.2915294708
 C          3.2144896490       -2.9679846069        0.6301182166
 C          4.5480953091       -2.6634840738        0.6389054367
 C          4.9249916613       -1.3654532952        0.2898660709
 O          6.1867997077       -0.8661826108        0.2166837821
 C          6.0642354232        0.4333651875       -0.1667592068
 C          7.0984504734        1.3277689233       -0.3775617078
 C          6.7567431300        2.6120871535       -0.7722970815
 C          5.4305671881        2.9879166373       -0.9488206675
 C          4.3955608054        2.0896302110       -0.7368702105
 C          4.7135174532        0.8006305361       -0.3433683002
 C          3.9506170215       -0.3881230232       -0.0428832442
 C          2.6141259817       -0.6949810864       -0.0411858898
 C          0.3799476556       -3.7541224180        0.2849483784
 C         -0.9525854908       -4.0431020644        0.2031111105
 N         -1.9185013417       -3.1259548860        0.1517220759
 C         -3.8927269535       -1.1302472337       -0.2886949574
 C         -4.5571272575       -2.3113567564       -0.5723321327
 C         -5.9135622889       -2.2393097905       -0.8384266034
 C         -6.5954582807       -1.0245364988       -0.8343138681
 C         -5.9447086009        0.1662023548       -0.5598748507
 C         -4.5903767698        0.1042382932       -0.2898116374
 N         -3.6567442426        1.0666686630        0.0097662324
 H         -1.9324738853        5.8486585234        0.9291190689
 H         -4.3149923610        5.6346401347        0.4315105546
 H         -5.3323464338        3.4297468619       -0.0360182377
 H         -0.4513427090        3.8612809367        0.9799102483
 H         -0.0223827753       -0.3667181607        0.1988195460
 H          2.9202094724       -3.9625772807        0.9219213564
 H          5.2930776787       -3.3954932957        0.9081429870
 H          8.1254758329        1.0299515472       -0.2402224578
 H          7.5401236136        3.3342594024       -0.9469102269
 H          5.2043169215        3.9975154087       -1.2575159754
 H          3.3662938646        2.3830903444       -0.8747820242
 H          1.8929983003        0.0572049669       -0.3123009263
 H          1.0857262072       -4.5646589788        0.3415565516
 H         -1.3027436822       -5.0670544876        0.2223149575
 H         -4.0183756982       -3.2445066123       -0.5763150587
 H         -6.4547583988       -3.1454900156       -1.0617696782
 H         -7.6518130992       -1.0094744602       -1.0550386054
 H         -6.4707282313        1.1073425520       -0.5589236360
  53
  -89.1657270400000       5.841556424119204E-002 !
 C         -2.5452952095        4.9652714741        0.2669074238
 C         -3.9081584432        4.7703033487        0.0481104094
 C         -4.4455216466        3.4983825937       -0.0882818427
 C         -3.5731584460        2.4358582819        0.0023852922
 C         -2.1750225700        2.6185732130        0.2300371760
 C         -1.6634549981        3.9075525290        0.3597327596
 N         -1.5245736830        1.4150518483        0.2983645293
 C         -2.4737463627        0.5238553247        0.1200814655
 N         -2.5594170341       -0.8357233517        0.0848405212
 C         -1.5194798822       -1.7401556922        0.2669246989
 C         -0.2066520684       -1.3499282596        0.1456252465
 C          0.8328901425       -2.3056476370        0.2605692501
 C          2.2054451504       -1.9878173524        0.0608720852
 C          3.1578463805       -3.0218778354       -0.2080696439
 C          4.4932760753       -2.7806364487       -0.3818524558
 C          4.9325505046       -1.4604456909       -0.2880622924
 O          6.2110605050       -1.0158145812       -0.4095993415
 C          6.1647541111        0.3325329693       -0.2429555071
 C          7.2435252459        1.1979425918       -0.2800947019
 C          6.9835762783        2.5446438488       -0.0820458759
 C          5.6923315274        3.0070026268        0.1432194640
 C          4.6131325135        2.1373752337        0.1803521527
 C          4.8483684985        0.7861078194       -0.0132126571
 C          4.0232594318       -0.3996678048       -0.0411909553
 C          2.6815240050       -0.6470559337        0.1232571899
 C          0.3962551315       -3.6477545824        0.5562176232
 C         -0.9356701839       -3.9211466150        0.6873702258
 N         -1.8977467417       -3.0100597565        0.5624723759
 C         -3.8952923039       -1.1508931577       -0.1477731889
 C         -4.5227626664       -2.3756461168       -0.3000650854
 C         -5.8896572036       -2.3766757436       -0.5189786337
 C         -6.6166600981       -1.1910916500       -0.5993908212
 C         -6.0029374278        0.0422696942       -0.4611130912
 C         -4.6382464892        0.0535420561       -0.2391403455
 N         -3.7306554999        1.0698074580       -0.0684675989
 H         -2.1739713479        5.9742527692        0.3671020613
 H         -4.5617499331        5.6269836155       -0.0156805307
 H         -5.5014265830        3.3512929756       -0.2545400235
 H         -0.6103265263        4.0592926200        0.5300150385
 H         -0.0058298847       -0.3235862767       -0.1151567398
 H          2.8057768641       -4.0350471521       -0.3118820780
 H          5.1905833923       -3.5766432886       -0.5903384632
 H          8.2418863218        0.8303535621       -0.4556193357
 H          7.8029177796        3.2473992001       -0.1042910556
 H          5.5296390743        4.0638825297        0.2922430939
 H          3.6123389279        2.5002276741        0.3566824510
 H          2.0029523954        0.1632732653        0.3334228287
 H          1.1118798516       -4.4258051452        0.7594993582
 H         -1.2806104578       -4.9112442676        0.9553613932
 H         -3.9510724863       -3.2868465460       -0.2398861135
 H         -6.4027758854       -3.3181678021       -0.6382930692
 H         -7.6797147336       -1.2337761709       -0.7802629097
 H         -6.5650261427        0.9599141034       -0.5268605204
  53
  -89.1648905000000       2.410357217680292E-002 !
 C         -2.4886853148        4.8775525224        0.9758713195
 C         -3.7852202678        4.7557610637        0.4787634235
 C         -4.3028660363        3.5276388837        0.0952705248
 C         -3.4785660099        2.4304731594        0.2251712619
 C         -2.1491817606        2.5399376925        0.7333720114
 C         -1.6552719130        3.7852761152        1.1098514942
 N         -1.5363912618        1.3141454513        0.7799968679
 C         -2.4444579236        0.4825559778        0.3277258191
 N         -2.5343789172       -0.8595795762        0.1186000280
 C         -1.5278644399       -1.7983992559        0.3431283782
 C         -0.2168451111       -1.4023758042        0.4026348650
 C          0.8219333941       -2.3620240011        0.5613468919
 C          2.1935079496       -2.0251506094        0.4442175648
 C          3.2231132179       -3.0223783984        0.5333484379
 C          4.5501876212       -2.7515223734        0.3453815905
 C          4.9160419566       -1.4362749158        0.0513944937
 O          6.1646919279       -0.9631549139       -0.2018180699
 C          6.0295213229        0.3698028721       -0.4388377249
 C          7.0437057968        1.2534269238       -0.7626025903
 C          6.6893474409        2.5769977702       -0.9738488827
 C          5.3706639430        3.0016999591       -0.8634325733
 C          4.3555577897        2.1139486772       -0.5408807795
 C          4.6859001369        0.7861735178       -0.3290232281
 C          3.9395572659       -0.4084170825       -0.0101060717
 C          2.6112794335       -0.6811070945        0.1889335175
 C          0.3534101204       -3.7158126991        0.7361245849
 C         -0.9824444479       -3.9954342715        0.6800228640
 N         -1.9353827364       -3.0794984841        0.4998731573
 C         -3.8000400847       -1.1058469424       -0.3998389036
 C         -4.3893512240       -2.2877093629       -0.8152392430
 C         -5.6791235780       -2.2209242398       -1.3127320842
 C         -6.3644421474       -1.0120370751       -1.4040442608
 C         -5.7867918345        0.1788737377       -0.9957243932
 C         -4.4995221593        0.1229644240       -0.4962142088
 N         -3.6364196503        1.0860360938       -0.0297975628
 H         -2.1309377361        5.8547669756        1.2640809177
 H         -4.4028111841        5.6368810768        0.3923496370
 H         -5.3090281045        3.4375459082       -0.2838648259
 H         -0.6530873863        3.8778702208        1.4952831940
 H         -0.0111019970       -0.3523679029        0.2873785657
 H          2.9452280399       -4.0389180099        0.7553666361
 H          5.2988743798       -3.5250260986        0.4140545725
 H          8.0649360359        0.9181979353       -0.8482256258
 H          7.4565883868        3.2920879857       -1.2300318784
 H          5.1342274559        4.0412581747       -1.0341882043
 H          3.3316048921        2.4447198920       -0.4583023501
 H          1.8949375747        0.1209815900        0.1446137514
 H          1.0385069832       -4.5195687266        0.9427243247
 H         -1.3481905606       -5.0022735424        0.8333562905
 H         -3.8478334772       -3.2164258840       -0.7420254403
 H         -6.1625808816       -3.1261693194       -1.6457189965
 H         -7.3655257162       -1.0005955525       -1.8069799321
 H         -6.3169801476        1.1147947812       -1.0694207127
