  53
  -88.8322686100000       0.164453990886278      !
 C         -2.3349109731        4.8429370788        0.5797020295
 C         -3.7016412554        4.7104265173        0.3398434002
 C         -4.2845041610        3.4695051117        0.1288956320
 C         -3.4530689111        2.3709412018        0.1650975390
 C         -2.0520643345        2.4915039681        0.4100074306
 C         -1.4937313529        3.7493728288        0.6185027213
 N         -1.4441335393        1.2636298394        0.4052101277
 C         -2.4207426092        0.4184805211        0.1658933804
 N         -2.5469163596       -0.9319150169        0.0308439909
 C         -1.5134111521       -1.8627127636        0.1136377917
 C         -0.2061307961       -1.4469103678        0.1677689186
 C          0.8517053679       -2.3927771295        0.2296191978
 C          2.2184356980       -2.0114069963        0.2272632914
 C          3.2614604985       -2.9645494838        0.4777830258
 C          4.5901987694       -2.6407238682        0.4735427663
 C          4.9406672002       -1.3161978348        0.2047480638
 O          6.1926765588       -0.7918544027        0.1403237111
 C          6.0417478800        0.5290883951       -0.1485112718
 C          7.0570349943        1.4540566941       -0.3150913758
 C          6.6866630543        2.7569293027       -0.6104455601
 C          5.3513525470        3.1211829257       -0.7339147719
 C          4.3354951255        2.1922786190       -0.5664520068
 C          4.6819896455        0.8845785172       -0.2718871952
 C          3.9442443697       -0.3351079896       -0.0397267238
 C          2.6129815850       -0.6621318623       -0.0290656030
 C          0.4216815631       -3.7693948437        0.2336397735
 C         -0.9091712501       -4.0714537771        0.1822786167
 N         -1.8859282259       -3.1641706121        0.1540273142
 C         -3.8910411254       -1.1872201497       -0.2257447176
 C         -4.5588996213       -2.3776161878       -0.4587835675
 C         -5.9234256866       -2.3173966829       -0.6828174415
 C         -6.6107599292       -1.1059001364       -0.6865487792
 C         -5.9571130304        0.0938002560       -0.4627481379
 C         -4.5945819071        0.0437465304       -0.2348237038
 N         -3.6567368906        1.0174473180        0.0105072868
 H         -1.9273843074        5.8300876847        0.7392121775
 H         -4.3223110755        5.5933119315        0.3186163621
 H         -5.3434997751        3.3721544725       -0.0532452585
 H         -0.4371214948        3.8504364966        0.8051941454
 H         -0.0196693746       -0.3867165340        0.1636141634
 H          2.9911586768       -3.9826179393        0.7038607679
 H          5.3516786278       -3.3778296591        0.6739059231
 H          8.0914419140        1.1653536419       -0.2191031145
 H          7.4544113561        3.5034275049       -0.7476935965
 H          5.1026939899        4.1462765202       -0.9642523255
 H          3.2990931077        2.4765649949       -0.6635649531
 H          1.8770339988        0.0979221004       -0.2286855958
 H          1.1343344920       -4.5747599195        0.2738304628
 H         -1.2483113908       -5.0989532720        0.2054129242
 H         -4.0161894495       -3.3083201665       -0.4573368033
 H         -6.4671802517       -3.2311070388       -0.8658171771
 H         -7.6737789513       -1.1005889916       -0.8726976170
 H         -6.4873533412        1.0325637664       -0.4673819747
  53
  -88.8319199294000       0.113710850615763      !
 C         -2.2007385473        4.8401753723       -0.0478354884
 C         -3.5869982911        4.7163461019       -0.1262686834
 C         -4.2059711275        3.4748319155       -0.1291797451
 C         -3.3905867698        2.3663274948       -0.0536253413
 C         -1.9698456237        2.4781930833        0.0292663944
 C         -1.3753423496        3.7369198463        0.0302781068
 N         -1.3825489510        1.2429453032        0.1030791455
 C         -2.3901320265        0.4008584040        0.0572403014
 N         -2.5461619983       -0.9534112407        0.0793865608
 C         -1.5173040575       -1.8871240339        0.1513919190
 C         -0.2108012145       -1.4851220074        0.0106525281
 C          0.8466965374       -2.4304108668        0.0519097613
 C          2.2086048748       -2.0413891470       -0.0441185262
 C          3.2469497182       -2.9982526580       -0.2872783049
 C          4.5677801566       -2.6565969672       -0.3942932645
 C          4.9091505083       -1.3104705410       -0.2507787291
 O          6.1523885800       -0.7640403641       -0.3145085157
 C          5.9959547975        0.5721832439       -0.1111840111
 C          7.0003277299        1.5236455803       -0.0902555629
 C          6.6243899005        2.8390889057        0.1350148695
 C          5.2943673379        3.1904365260        0.3326164025
 C          4.2895788078        2.2352161645        0.3120860222
 C          4.6421193928        0.9149818109        0.0883295652
 C          3.9146281773       -0.3286360186       -0.0038977366
 C          2.5920040977       -0.6743287711        0.1013081020
 C          0.4235623004       -3.7975632151        0.2148418131
 C         -0.9035581858       -4.0864268372        0.3564556156
 N         -1.8808503518       -3.1778725450        0.3332366926
 C         -3.9133757832       -1.2024810429       -0.0013919761
 C         -4.6163742309       -2.3949222204       -0.0225207154
 C         -5.9973316047       -2.3264325313       -0.0929845176
 C         -6.6662881962       -1.1060271518       -0.1526323508
 C         -5.9777918618        0.0950314070       -0.1401718407
 C         -4.5984682539        0.0375336870       -0.0664633711
 N         -3.6275996685        1.0093360511       -0.0320910071
 H         -1.7649879886        5.8281451565       -0.0493170716
 H         -4.1942792572        5.6068455442       -0.1852422907
 H         -5.2795654500        3.3849075892       -0.1877715094
 H         -0.3033948192        3.8315165077        0.0885912954
 H         -0.0285600806       -0.4455092355       -0.2038451459
 H          2.9769670252       -4.0335284831       -0.4185433648
 H          5.3290789231       -3.3964794090       -0.5869023747
 H          8.0308273037        1.2458188287       -0.2432662779
 H          7.3837896934        3.6062291634        0.1574786174
 H          5.0418240193        4.2255502411        0.5064762990
 H          3.2569188890        2.5079062095        0.4660063633
 H          1.8556694776        0.0822018571        0.3143788905
 H          1.1431517084       -4.5946367151        0.2908934064
 H         -1.2372791693       -5.1019538123        0.5253564791
 H         -4.0874300121       -3.3326138138        0.0185516263
 H         -6.5693264554       -3.2410416249       -0.1091404111
 H         -7.7436622833       -1.0952570934       -0.2149343655
 H         -6.4945258237        1.0401700368       -0.1870713271
  53
  -88.8319169758000       0.113356003961614      !
 C         -2.3086243757        4.8562365657        0.3921202755
 C         -3.6780491517        4.7199064883        0.1702612766
 C         -4.2660332214        3.4746301360        0.0060566274
 C         -3.4370446011        2.3752959357        0.0703002505
 C         -2.0335249167        2.4995784253        0.2982850454
 C         -1.4700747873        3.7619911345        0.4587677565
 N         -1.4294000904        1.2696841565        0.3335298488
 C         -2.4111546161        0.4211028950        0.1342327450
 N         -2.5442256901       -0.9328603957        0.0571470685
 C         -1.5162906305       -1.8634589887        0.1883041000
 C         -0.2058332456       -1.4599621528        0.1206281681
 C          0.8507003081       -2.4054788517        0.2259366953
 C          2.2163714700       -2.0321400838        0.1397917315
 C          3.2604826799       -3.0155243757        0.0910130325
 C          4.5867466836       -2.6979296819       -0.0099821565
 C          4.9341875345       -1.3468120164       -0.0699604023
 O          6.1826072142       -0.8211095892       -0.1786248341
 C          6.0292205695        0.5303756373       -0.2051655998
 C          7.0397753595        1.4689746592       -0.3148514863
 C          6.6672043636        2.8042048122       -0.3297778592
 C          5.3342119104        3.1863034334       -0.2382377144
 C          4.3232547800        2.2437362147       -0.1269779523
 C          4.6720182236        0.9039295660       -0.1096447899
 C          3.9383224462       -0.3369670537       -0.0196502448
 C          2.6101103444       -0.6585861036        0.0893295225
 C          0.4123169444       -3.7673816966        0.4042232429
 C         -0.9205672865       -4.0572533914        0.4652814737
 N         -1.8942596571       -3.1497895873        0.3714467966
 C         -3.8910139662       -1.1939353281       -0.1747740197
 C         -4.5631351104       -2.3916692066       -0.3499754452
 C         -5.9301957051       -2.3369288448       -0.5603028834
 C         -6.6141347166       -1.1246408539       -0.6073992769
 C         -5.9553548274        0.0820781116       -0.4419008771
 C         -4.5905277985        0.0380155445       -0.2283803258
 N         -3.6467318981        1.0178921282       -0.0330446598
 H         -1.8969660508        5.8469147269        0.5150652140
 H         -4.2965744655        5.6034667998        0.1266527705
 H         -5.3270551958        3.3741112462       -0.1618642193
 H         -0.4115948993        3.8665304407        0.6318926167
 H         -0.0174266651       -0.4167187882       -0.0663152475
 H          2.9939836063       -4.0587250019        0.1195519511
 H          5.3486159374       -3.4605366261       -0.0484298192
 H          8.0721699581        1.1661708184       -0.3856067596
 H          7.4312184787        3.5622277068       -0.4153640980
 H          5.0836507709        4.2364114945       -0.2548787394
 H          3.2885651260        2.5419022936       -0.0566476495
 H          1.8766616068        0.1272718493        0.1482459179
 H          1.1204066315       -4.5662889904        0.5401653847
 H         -1.2634609797       -5.0698250386        0.6334304846
 H         -4.0229689893       -3.3231534488       -0.3146280306
 H         -6.4784366440       -3.2557931526       -0.6984847413
 H         -7.6788609849       -1.1238727057       -0.7830511601
 H         -6.4838830404        1.0209881910       -0.4811761851
  53
  -88.8319019559000       0.111568568184919      !
 C         -2.3617297419        4.8405131970        0.6546351739
 C         -3.7238096318        4.7068731471        0.3899324656
 C         -4.2986582669        3.4671452076        0.1512221503
 C         -3.4639911334        2.3710101770        0.1851411856
 C         -2.0676509255        2.4927032242        0.4555081808
 C         -1.5172795178        3.7494293549        0.6910606650
 N         -1.4559040792        1.2667650511        0.4463847520
 C         -2.4256925251        0.4218360709        0.1802123800
 N         -2.5454626323       -0.9271184639        0.0277815366
 C         -1.5118605171       -1.8566249906        0.1219298584
 C         -0.2051537582       -1.4398830312        0.1816043966
 C          0.8520714722       -2.3850907968        0.2571715860
 C          2.2191637923       -2.0045139121        0.2552499633
 C          3.2594835476       -2.9521745393        0.5350651304
 C          4.5886937192       -2.6297212177        0.5298737559
 C          4.9417438591       -1.3127558562        0.2291164230
 O          6.1947242876       -0.7919988872        0.1557572118
 C          6.0467299032        0.5214061729       -0.1670026231
 C          7.0640265618        1.4401672860       -0.3544273412
 C          6.6967267649        2.7356565029       -0.6845973215
 C          5.3623569032        3.0987657687       -0.8215031886
 C          4.3444524150        2.1759969698       -0.6333191533
 C          4.6878975785        0.8755804110       -0.3041456950
 C          3.9475801983       -0.3367842481       -0.0437267189
 C          2.6158613275       -0.6623340769       -0.0311120459
 C          0.4227982426       -3.7618683051        0.2709293429
 C         -0.9077267814       -4.0649252090        0.2116309952
 N         -1.8843349293       -3.1581137034        0.1690690071
 C         -3.8837307998       -1.1834745641       -0.2560616172
 C         -4.5429811339       -2.3732827634       -0.5150093334
 C         -5.9033956535       -2.3148310771       -0.7632855373
 C         -6.5945024589       -1.1053876079       -0.7656031684
 C         -5.9491994440        0.0937609388       -0.5156838224
 C         -4.5909151327        0.0454333770       -0.2636002588
 N         -3.6607505850        1.0189242970        0.0103582158
 H         -1.9606384567        5.8264703534        0.8360743178
 H         -4.3472963952        5.5878185901        0.3715570003
 H         -5.3541938613        3.3688420937       -0.0493996918
 H         -0.4645352836        3.8511053500        0.8976941871
 H         -0.0184554737       -0.3796149639        0.1732203616
 H          2.9864555773       -3.9633456979        0.7871049540
 H          5.3484749552       -3.3622725061        0.7524863297
 H          8.0975795049        1.1521636331       -0.2484101826
 H          7.4662714377        3.4769928365       -0.8392205745
 H          5.1159686857        4.1183001417       -1.0781686553
 H          3.3087061004        2.4598112789       -0.7396028961
 H          1.8810167788        0.0927237409       -0.2528355292
 H          1.1358930942       -4.5662510123        0.3231793166
 H         -1.2467808313       -5.0923698863        0.2409312204
 H         -3.9972498541       -3.3022853017       -0.5145477632
 H         -6.4406426593       -3.2279891243       -0.9668373789
 H         -7.6538677822       -1.1011632074       -0.9716065641
 H         -6.4824361836        1.0308465572       -0.5197325572
  53
  -88.8318277052000       0.103137975057199      !
 C         -2.1996240614        4.8298657960       -0.3146231596
 C         -3.5874570550        4.7103673506       -0.2623262168
 C         -4.2063038446        3.4729173992       -0.1614303278
 C         -3.3893340462        2.3638384446       -0.1166343248
 C         -1.9668743223        2.4717351823       -0.1643155660
 C         -1.3723701608        3.7262361854       -0.2667443804
 N         -1.3777026958        1.2368670414       -0.0959850329
 C         -2.3866681038        0.3984283135       -0.0231471824
 N         -2.5428738637       -0.9542040557        0.0539942892
 C         -1.5123642262       -1.8892554887        0.0778825976
 C         -0.2096339205       -1.4855224690       -0.0916425960
 C          0.8482724155       -2.4319011529       -0.0861864811
 C          2.2097096540       -2.0378210272       -0.1562561338
 C          3.2501024764       -2.9754723379       -0.4589299671
 C          4.5699858401       -2.6237052101       -0.5419988428
 C          4.9081651049       -1.2899902761       -0.3044666002
 O          6.1505067554       -0.7382619325       -0.3244773857
 C          5.9914192779        0.5791991327       -0.0223308319
 C          6.9941947468        1.5272558341        0.0763378184
 C          6.6155048052        2.8206022754        0.4027116289
 C          5.2844505631        3.1540723826        0.6225783804
 C          4.2808725708        2.2027653425        0.5218397062
 C          4.6363283673        0.9047170845        0.1962306875
 C          3.9109475778       -0.3290075555        0.0081716030
 C          2.5888360105       -0.6829133516        0.0825598547
 C          0.4294165052       -3.8030118122        0.0477438364
 C         -0.8936600444       -4.0932290967        0.2185275417
 N         -1.8712390209       -3.1841256510        0.2337087207
 C         -3.9129320967       -1.1986435679        0.1009967565
 C         -4.6189045448       -2.3867562349        0.1833280895
 C         -6.0001900856       -2.3124317659        0.2379799108
 C         -6.6684833090       -1.0907622344        0.2016375798
 C         -5.9781073728        0.1056988962        0.1108666068
 C         -4.5980397819        0.0422576868        0.0587063024
 N         -3.6258492253        1.0097803355       -0.0238517967
 H         -1.7641489291        5.8145433864       -0.3965520482
 H         -4.1960735331        5.6008186233       -0.3030643433
 H         -5.2809935433        3.3862762190       -0.1209117455
 H         -0.2993563766        3.8171798365       -0.3111824584
 H         -0.0298704953       -0.4443038185       -0.3012775691
 H          2.9806117594       -3.9992621517       -0.6619233128
 H          5.3331322508       -3.3462605752       -0.7852936567
 H          8.0258243901        1.2634304818       -0.0931282719
 H          7.3737678164        3.5843738195        0.4882590533
 H          5.0297208471        4.1721043107        0.8766894175
 H          3.2472052281        2.4614110486        0.6930010964
 H          1.8486274287        0.0537769581        0.3453711113
 H          1.1507299574       -4.6017261258        0.0784480936
 H         -1.2256365334       -5.1129550349        0.3645541894
 H         -4.0911622893       -3.3255488619        0.2067082014
 H         -6.5736313196       -3.2237005587        0.3062007936
 H         -7.7468785883       -1.0756144343        0.2404729160
 H         -6.4938453716        1.0520170751        0.0815043356
  53
  -88.8317386908000       9.386645461827200E-002 !
 C         -3.9232197396        4.8016170439        1.1961112127
 C         -5.2203668176        4.3591055358        0.9411096710
 C         -5.4819737006        3.0440281341        0.5848599737
 C         -4.4027019605        2.1922608223        0.4917885710
 C         -3.0691257817        2.6309642165        0.7520274521
 C         -2.8356247469        3.9567976843        1.1070897596
 N         -2.1755968619        1.6033626237        0.6060384813
 C         -2.9172421914        0.5744301370        0.2629235498
 N         -2.7056704464       -0.7391547536       -0.0339573251
 C         -1.4711270373       -1.3797978978       -0.0581554496
 C         -0.3086700044       -0.6498450752        0.0162937372
 C          0.9530694762       -1.2946981591       -0.0459624109
 C          2.1818329256       -0.5892258716        0.0508977469
 C          2.2210817950        0.7642923184        0.5200264098
 C          3.3809773534        1.4793540582        0.6361576529
 C          4.5771217395        0.8520473539        0.2783100631
 O          5.8283265960        1.3816912957        0.3188023590
 C          6.6716507674        0.4102724492       -0.1223177723
 C          8.0462522250        0.5089645433       -0.2460388566
 C          8.7233855855       -0.6042248779       -0.7182818149
 C          8.0512378537       -1.7733640035       -1.0548188915
 C          6.6742204366       -1.8701545467       -0.9295537338
 C          5.9763352809       -0.7705789867       -0.4588731203
 C          4.5864704301       -0.4848756791       -0.1927739538
 C          3.4202758395       -1.2001063066       -0.3054706464
 C          0.8905518757       -2.7249688072       -0.2094387125
 C         -0.3207987782       -3.3534214101       -0.2572308295
 N         -1.4963358773       -2.7279924672       -0.1833248356
 C         -3.9510209294       -1.2940126029       -0.3157178836
 C         -4.3076301053       -2.5817643883       -0.6782344265
 C         -5.6516231058       -2.8447707272       -0.8806186011
 C         -6.6195332980       -1.8528856387       -0.7397014862
 C         -6.2791281515       -0.5585400662       -0.3855804139
 C         -4.9397411000       -0.2867143062       -0.1768476877
 N         -4.2674838813        0.8574637839        0.1788843775
 H         -3.7697661994        5.8348760366        1.4696995047
 H         -6.0414878662        5.0550850116        1.0222976119
 H         -6.4882181758        2.7061520324        0.3912513533
 H         -1.8321889987        4.2975135171        1.3029438365
 H         -0.3931477695        0.4236691145        0.0483541997
 H          1.2975284665        1.2335365638        0.8165576692
 H          3.3844250287        2.4954931630        0.9972170455
 H          8.5624219664        1.4183128339        0.0168427508
 H          9.7966866104       -0.5605761704       -0.8268719917
 H          8.6134174149       -2.6196084065       -1.4204025372
 H          6.1550098043       -2.7790969687       -1.1918783962
 H          3.4480425936       -2.2053602217       -0.6902333721
 H          1.7883978313       -3.3183463850       -0.2284875336
 H         -0.3874502586       -4.4308459844       -0.3356397584
 H         -3.5497488708       -3.3392874310       -0.7892823528
 H         -5.9563253841       -3.8409894861       -1.1611151886
 H         -7.6562545687       -2.0960876723       -0.9150393883
 H         -7.0272879520        0.2101683024       -0.2772517079
  53
  -88.8317384104000       9.383860690010028E-002 !
 C         -2.3995882411        4.8373051856        0.7361167154
 C         -3.7579660896        4.7007082086        0.4540942134
 C         -4.3231356607        3.4618540306        0.1884272052
 C         -3.4828310901        2.3699709138        0.2138051933
 C         -2.0902051695        2.4946119563        0.5021926941
 C         -1.5494766807        3.7503341374        0.7644216836
 N         -1.4716144159        1.2726674879        0.4804935472
 C         -2.4337653193        0.4265857693        0.1901660572
 N         -2.5447341482       -0.9207851792        0.0173939670
 C         -1.5088973953       -1.8470608367        0.1143793563
 C         -0.2036338227       -1.4277847206        0.1926471250
 C          0.8530742534       -2.3713223719        0.2765005514
 C          2.2207006412       -1.9904746450        0.2865869649
 C          3.2528672929       -2.9274256587        0.6228632956
 C          4.5824756423       -2.6058942249        0.6306748649
 C          4.9423636048       -1.3026897453        0.2829652443
 O          6.1976017041       -0.7872156959        0.2091395838
 C          6.0580146376        0.5111586309       -0.1724551858
 C          7.0804774791        1.4190006835       -0.3831422817
 C          6.7219484410        2.6993568910       -0.7758230056
 C          5.3908869401        3.0584141481       -0.9504774448
 C          4.3676837234        2.1466780938       -0.7386467180
 C          4.7025226348        0.8613384822       -0.3471810984
 C          3.9552130003       -0.3374742896       -0.0474818981
 C          2.6227606949       -0.6614137303       -0.0448090464
 C          0.4282562442       -3.7493226718        0.2795836558
 C         -0.9005550584       -4.0552250138        0.1987415868
 N         -1.8781817681       -3.1504482583        0.1495658830
 C         -3.8782459598       -1.1795947505       -0.2861664240
 C         -4.5277752070       -2.3687377602       -0.5706803519
 C         -5.8853000030       -2.3137077182       -0.8352765534
 C         -6.5826805849       -1.1077673246       -0.8288500900
 C         -5.9469337260        0.0908415752       -0.5535074411
 C         -4.5916368148        0.0458614833       -0.2849269755
 N         -3.6700824098        1.0197682017        0.0149596619
 H         -2.0061819461        5.8222244912        0.9388610429
 H         -4.3862881797        5.5783844320        0.4434332140
 H         -5.3758342540        3.3612663300       -0.0259629021
 H         -0.4996875631        3.8539004596        0.9854889114
 H         -0.0174792160       -0.3672349073        0.1983567739
 H          2.9716455364       -3.9260847827        0.9136531842
 H          5.3370468408       -3.3286614588        0.8981723834
 H          8.1113735827        1.1341718865       -0.2472595077
 H          7.4958394207        3.4317240624       -0.9502895281
 H          5.1514113832        4.0654384709       -1.2576014039
 H          3.3346013801        2.4271220713       -0.8751055074
 H          1.8917820480        0.0818364212       -0.3141819934
 H          1.1444083160       -4.5508337380        0.3343886406
 H         -1.2375609651       -5.0835992312        0.2169514621
 H         -3.9771309797       -3.2949101719       -0.5764560567
 H         -6.4150900500       -3.2264464447       -1.0592597720
 H         -7.6393730091       -1.1059365136       -1.0484623531
 H         -6.4849525099        1.0251705857       -0.5507660262
  53
  -88.8316882206000       8.898481803389327E-002 !
 C         -2.1664382745        4.8122424207        0.4963798287
 C         -3.5288755712        4.7159885439        0.2179310679
 C         -4.1469328362        3.4887188071        0.0285148831
 C         -3.3547379609        2.3647390873        0.1238543142
 C         -1.9586639911        2.4491858981        0.4081196868
 C         -1.3644271648        3.6935109332        0.5956761446
 N         -1.3904836277        1.2034463085        0.4567323291
 C         -2.3851455592        0.3827526763        0.2087486280
 N         -2.5451426744       -0.9659715083        0.0955700027
 C         -1.5280114461       -1.9131240270        0.1965965133
 C         -0.2185287607       -1.5039629838        0.2060433253
 C          0.8411520345       -2.4481869891        0.2656428579
 C          2.2019940101       -2.0530237464        0.2129294073
 C          3.2729714601       -3.0024737353        0.3205296377
 C          4.5946778683       -2.6547986407        0.2557669137
 C          4.9116764080       -1.3067844149        0.0717867317
 O          6.1479603560       -0.7502388492       -0.0301959253
 C          5.9556653241        0.5865589640       -0.2007077960
 C          6.9388774764        1.5478791894       -0.3547568022
 C          6.5237839585        2.8609335723       -0.5173771152
 C          5.1766308103        3.2017469824       -0.5258758312
 C          4.1927317088        2.2370457466       -0.3718575351
 C          4.5850032441        0.9195940943       -0.2083827981
 C          3.8867307335       -0.3308562782       -0.0295916037
 C          2.5646315269       -0.6806501374        0.0409688829
 C          0.4053672875       -3.8210955827        0.3294799632
 C         -0.9283775381       -4.1174434700        0.3265565275
 N         -1.9059853453       -3.2094532389        0.2803992369
 C         -3.8859394385       -1.1889495735       -0.1997255767
 C         -4.5758166102       -2.3664118054       -0.4327003393
 C         -5.9294908042       -2.2741163905       -0.7066080216
 C         -6.5824415856       -1.0448196161       -0.7574450395
 C         -5.9054144259        0.1418898388       -0.5321425189
 C         -4.5536191050        0.0606590235       -0.2559893909
 N         -3.5971491984        1.0136534058        0.0024091528
 H         -1.7307745414        5.7900699955        0.6378487675
 H         -4.1182438292        5.6176170565        0.1483466321
 H         -5.2026067629        3.4206221403       -0.1835909552
 H         -0.3113562120        3.7650213886        0.8135950415
 H         -0.0340820511       -0.4460971637        0.1413186637
 H          3.0318697198       -4.0421115476        0.4677169395
 H          5.3763001106       -3.3931814158        0.3421482239
 H          7.9832424891        1.2802017794       -0.3481801100
 H          7.2661414425        3.6350279601       -0.6409343615
 H          4.8932143339        4.2353713594       -0.6565661348
 H          3.1462066296        2.5002787315       -0.3806908601
 H          1.8142110123        0.0863475947       -0.0385024937
 H          1.1144547817       -4.6278522693        0.3990624916
 H         -1.2699978456       -5.1416130887        0.4020358690
 H         -4.0575975572       -3.3103423629       -0.3949349959
 H         -6.4915845152       -3.1760392607       -0.8926559866
 H         -7.6373854164       -1.0145723813       -0.9828855453
 H         -6.4098706422        1.0939176483       -0.5732677555
  53
  -88.8311989013000       5.302007482883210E-002 !
 C         -2.2358612919        4.8319451757       -0.4363779775
 C         -3.6124900573        4.7137081472       -0.2523178620
 C         -4.2201022208        3.4770258677       -0.0928312273
 C         -3.4032128033        2.3672786060       -0.1225436399
 C         -1.9920858834        2.4738942634       -0.3069553907
 C         -1.4088123084        3.7274315142       -0.4662779140
 N         -1.4007248547        1.2380006844       -0.3005942136
 C         -2.3971795118        0.4010321450       -0.1215362788
 N         -2.5453246706       -0.9502856680       -0.0181598886
 C         -1.5159664500       -1.8887359325       -0.0726492636
 C         -0.2089742375       -1.4765321458       -0.1497967232
 C          0.8495238587       -2.4236896379       -0.1870497050
 C          2.2133529804       -2.0359210418       -0.1806651822
 C          3.2682215548       -2.9870471170       -0.3881185578
 C          4.5931425727       -2.6477242553       -0.3943287678
 C          4.9284670214       -1.3091028331       -0.1787932137
 O          6.1732876785       -0.7653808215       -0.1390515650
 C          6.0050711809        0.5641643336        0.0980504641
 C          7.0069472963        1.5103224537        0.2216164380
 C          6.6180946815        2.8189137927        0.4644377746
 C          5.2781806349        3.1685732168        0.5798894486
 C          4.2757289088        2.2184581223        0.4563870914
 C          4.6411770794        0.9053517181        0.2135778457
 C          3.9199554938       -0.3321772718        0.0311776106
 C          2.5933592693       -0.6745761031        0.0343410220
 C          0.4186626071       -3.7996455339       -0.1641695062
 C         -0.9122489755       -4.0980869374       -0.0929942894
 N         -1.8892931819       -3.1897501955       -0.0766249642
 C         -3.9031337252       -1.1925969069        0.1714503459
 C         -4.5971503361       -2.3784142567        0.3437638222
 C         -5.9691334913       -2.3033597310        0.5102594044
 C         -6.6400310470       -1.0826942611        0.5108756469
 C         -5.9609654892        0.1121569877        0.3445529290
 C         -4.5903789007        0.0474919140        0.1768302987
 N         -3.6305109266        1.0135793142       -0.0065238690
 H         -1.8091795914        5.8162326482       -0.5590423224
 H         -4.2212108365        5.6049314435       -0.2343100616
 H         -5.2864416572        3.3913657597        0.0474442344
 H         -0.3446195835        3.8171471539       -0.6111295734
 H         -0.0228910020       -0.4176900108       -0.1995643897
 H          3.0098814392       -4.0167058401       -0.5714027133
 H          5.3634220045       -3.3838993661       -0.5622448527
 H          8.0452383663        1.2340028372        0.1320936641
 H          7.3752954938        3.5817787759        0.5658709227
 H          5.0152662452        4.1984574508        0.7694629638
 H          3.2353327810        2.4902706059        0.5467796505
 H          1.8497309862        0.0836467876        0.2100467048
 H          1.1304202918       -4.6064267521       -0.1922493747
 H         -1.2521594535       -5.1255077840       -0.0832873223
 H         -4.0675618849       -3.3165895320        0.3417917920
 H         -6.5328013788       -3.2132573244        0.6460212360
 H         -7.7103841686       -1.0664293983        0.6473375318
 H         -6.4779809362        1.0582790166        0.3470491444
  53
  -88.8310254126000       4.412761446354019E-002 !
 C         -2.6077475575        4.9312637009        0.2932218901
 C         -3.9688139092        4.7195454940        0.0788514531
 C         -4.4903294917        3.4412929204       -0.0598436124
 C         -3.6040736254        2.3897596894        0.0239680804
 C         -2.2075472019        2.5896490767        0.2470201712
 C         -1.7120690189        3.8846498823        0.3791726816
 N         -1.5414616191        1.3943566243        0.3088425516
 C         -2.4797913204        0.4916474083        0.1310834075
 N         -2.5481486742       -0.8687938598        0.0915562803
 C         -1.4960166133       -1.7604028452        0.2666943111
 C         -0.1887691638       -1.3529490601        0.1418208002
 C          0.8633724510       -2.2956214027        0.2496472229
 C          2.2309745009       -1.9595297136        0.0459088938
 C          3.1955390561       -2.9803729675       -0.2300858688
 C          4.5270992756       -2.7214266428       -0.4080311552
 C          4.9497549437       -1.3960254054       -0.3114081657
 O          6.2219889412       -0.9346125484       -0.4362069239
 C          6.1590209719        0.4124652468       -0.2648242675
 C          7.2264553379        1.2917732378       -0.3030554972
 C          6.9500035238        2.6343570112       -0.0994768026
 C          5.6537938479        3.0793442857        0.1321693092
 C          4.5859857157        2.1958134234        0.1703813393
 C          4.8378022458        0.8483316254       -0.0286366709
 C          4.0278707119       -0.3478398910       -0.0575538249
 C          2.6900489381       -0.6129822009        0.1110596126
 C          0.4451067398       -3.6442036713        0.5423737262
 C         -0.8826979111       -3.9351104416        0.6775673451
 N         -1.8568458814       -3.0360388539        0.5593469917
 C         -3.8807398476       -1.2003105216       -0.1371386011
 C         -4.4930195355       -2.4325032460       -0.2912371480
 C         -5.8606048247       -2.4503513907       -0.5050520167
 C         -6.6030531054       -1.2739371567       -0.5787342538
 C         -6.0046831832       -0.0332665083       -0.4385692428
 C         -4.6394211294       -0.0052150394       -0.2216522924
 N         -3.7443023191        1.0220435928       -0.0509245108
 H         -2.2490204821        5.9445890465        0.3954483973
 H         -4.6335759328        5.5679718723        0.0204020587
 H         -5.5448808262        3.2812146154       -0.2226588213
 H         -0.6603383640        4.0493291637        0.5460380512
 H         -0.0021134597       -0.3232480464       -0.1162298348
 H          2.8561046697       -3.9976266742       -0.3360161467
 H          5.2337674694       -3.5077143004       -0.6218127780
 H          8.2287796647        0.9376208728       -0.4835478128
 H          7.7601739395        3.3476444494       -0.1223974391
 H          5.4781222405        4.1335446356        0.2853786900
 H          3.5812928910        2.5451956938        0.3516723365
 H          2.0019374097        0.1878614960        0.3264994733
 H          1.1714143155       -4.4136766885        0.7403471173
 H         -1.2138965057       -4.9304447436        0.9434875174
 H         -3.9094658283       -3.3364844674       -0.2362788455
 H         -6.3620518520       -3.3979501048       -0.6256404414
 H         -7.6661478033       -1.3296625404       -0.7557827887
 H         -6.5787399515        0.8772999983       -0.4991099193
  53
  -88.8302745049000       1.993504244958831E-002 !
 C         -2.5496751384        4.8453720802        0.9787359859
 C         -3.8452946846        4.7068224352        0.4836336819
 C         -4.3476981616        3.4720677295        0.1011685239
 C         -3.5091679959        2.3856139743        0.2300202236
 C         -2.1805265516        2.5122622378        0.7361675321
 C         -1.7020889747        3.7639252266        1.1116522497
 N         -1.5519621259        1.2944566506        0.7820914460
 C         -2.4499550488        0.4511696769        0.3313686857
 N         -2.5229382098       -0.8920549686        0.1226386280
 C         -1.5040995679       -1.8178139108        0.3458088922
 C         -0.1981890208       -1.4049615024        0.4032354420
 C          0.8530782179       -2.3511465340        0.5605441544
 C          2.2200296214       -1.9966984793        0.4412539218
 C          3.2625012065       -2.9805926358        0.5290028084
 C          4.5856965707       -2.6927434149        0.3389558456
 C          4.9341678970       -1.3729649905        0.0441570537
 O          6.1762463129       -0.8838902288       -0.2110545757
 C          6.0235939660        0.4471700197       -0.4481236469
 C          7.0258430001        1.3436866467       -0.7736080721
 C          6.6541812278        2.6625492176       -0.9845670064
 C          5.3303182962        3.0702921558       -0.8722170491
 C          4.3271988529        2.1696365372       -0.5479434919
 C          4.6749015953        0.8462614793       -0.3363357855
 C          3.9444609348       -0.3577547659       -0.0160486351
 C          2.6201027075       -0.6474509424        0.1850732484
 C          0.4022600053       -3.7108077639        0.7362980103
 C         -0.9299745252       -4.0075863671        0.6822917991
 N         -1.8948796458       -3.1040114683        0.5034226414
 C         -3.7861193148       -1.1546779717       -0.3938179398
 C         -4.3608253828       -2.3441045353       -0.8080898638
 C         -5.6521071056       -2.2940063465       -1.3036237059
 C         -6.3530444427       -1.0940460305       -1.3941207868
 C         -5.7901253192        0.1042768140       -0.9869132439
 C         -4.5014827656        0.0650217995       -0.4893603270
 N         -3.6501184804        1.0392052311       -0.0244485445
 H         -2.2040771258        5.8271646043        1.2662105821
 H         -4.4742900420        5.5799141426        0.3979944923
 H         -5.3531965393        3.3689707847       -0.2764112667
 H         -0.7005903436        3.8694733102        1.4955339801
 H         -0.0061338939       -0.3524205802        0.2874629426
 H          2.9980428117       -4.0005725717        0.7516409050
 H          5.3443666170       -3.4565466558        0.4066331973
 H          8.0511654891        1.0215919373       -0.8607273693
 H          7.4117765605        3.3873865629       -1.2420598170
 H          5.0802804795        4.1066896561       -1.0428109912
 H          3.2992065803        2.4872382047       -0.4638637788
 H          1.8934446301        0.1453557495        0.1416941526
 H          1.0979447351       -4.5056488314        0.9420049617
 H         -1.2825159637       -5.0190104961        0.8363776244
 H         -3.8073052441       -3.2657692990       -0.7355252230
 H         -6.1243975980       -3.2054605370       -1.6356972697
 H         -7.3548060007       -1.0955566401       -1.7955281536
 H         -6.3324103032        1.0332910072       -1.0599791017
