64
 energy: -105.326927318132 gnorm: 0.000080300038 xtb: 6.7.1 (edcfbbe)
O            6.64863905184025       -2.43071165292316       -1.22687183789570
S            6.18114021561039       -1.82506299753131        0.00020817356220
O            6.64849396277342       -2.43034866009581        1.22752234852055
C            6.44499697535438       -0.05144955791657       -0.00002369784151
C            7.63825980346687        0.63069696184636       -0.00009832064230
C            7.60088902224575        2.02068668865570       -0.00027784684898
C            6.38422835932307        2.68605246499748       -0.00037199503684
C            5.18656943045483        1.98743536513342       -0.00029340544545
C            5.21143729131876        0.59717340687857       -0.00011740790644
C            4.05971380055853       -0.30639383109276       -0.00002245983405
C            2.71748319934032        0.05221645244895       -0.00005496361200
C            1.74771343736314       -0.94603126923006        0.00004767605923
N            0.37208393053952       -0.58623991398965        0.00002888200108
C           -0.28914835181535       -0.45723839310407        1.21405276508144
C            0.40762566143052       -0.61667377057361        2.41479032479795
C           -0.23818389757384       -0.49124589792249        3.62851904216666
C           -1.59173292813040       -0.20318513957874        3.67156178156677
C           -2.28559940421902       -0.04095424182601        2.48650395177485
C           -1.65412914125053       -0.16249451560421        1.25724321631270
C           -2.46864206401373        0.03131226618901        0.00001426432309
C           -3.67851332286451       -0.88421284148674        0.00021936661745
C           -3.70527035675181       -2.26146215058138        0.00050510229622
C           -4.93792712396867       -2.90154435268513        0.00065906543672
C           -6.11675578686380       -2.17100369350207        0.00052344703499
C           -6.09461520948460       -0.78492642476972        0.00023434217444
C           -4.86782047236925       -0.14129945740459        0.00008755705719
C           -4.52803917159783        1.27438968048774       -0.00017725974024
C           -5.32940288711883        2.40453923006609       -0.00036207952573
C           -4.72045707808477        3.64980006184551       -0.00055920116995
C           -3.33854196777594        3.76622752542488       -0.00056831241635
C           -2.53040822410278        2.63670264596142       -0.00038687808055
C           -3.13122447696025        1.39705925361405       -0.00020361140560
C           -1.65421525120817       -0.16294690059488       -1.25720390614846
C           -2.28576687218472       -0.04187239568035       -2.48646987194537
C           -1.59197855429457       -0.20454177868098       -3.67151292671433
C           -0.23841698086469       -0.49253983602561       -3.62845449767984
C            0.40747823022496       -0.61748605150253       -2.41472107932293
C           -0.28922696583077       -0.45765729624136       -1.21399658225412
C            2.10635820427691       -2.29163295701304        0.00017391593299
C            3.44619780755068       -2.65531140002330        0.00021288368440
C            4.39428102031455       -1.65945576076387        0.00011591925602
H            8.57124957763305        0.08908441508902       -0.00002151834377
H            8.52360260383865        2.57977815763822       -0.00034006336245
H            6.36846492238956        3.76540038875861       -0.00050764804738
H            4.24871667004314        2.51918150864067       -0.00036876651923
H            2.41355211042678        1.08700491833473       -0.00015157077517
H            1.46254710246344       -0.84416252863445        2.39493587666041
H            0.32135750199018       -0.62035954604407        4.54323836159978
H           -2.10242184692279       -0.10556956051681        4.61737576779911
H           -3.34200763198703        0.18522036835342        2.50816228870279
H           -2.78797336598111       -2.83268408506817        0.00060745954792
H           -4.97873535538862       -3.98121575012387        0.00088969406155
H           -7.06470749693434       -2.68992425600279        0.00064790807763
H           -7.01569500538501       -0.22072171269130        0.00013463628168
H           -6.40616863861964        2.31937534779914       -0.00034455892213
H           -5.33006855850954        4.54210268426654       -0.00070083481960
H           -2.88563194972420        4.74707762854709       -0.00071684133408
H           -1.45394045593092        2.72922400952155       -0.00039682899277
H           -3.34217836379386        0.18428354906952       -2.50814336269531
H           -2.10273620748250       -0.10729945654769       -4.61732823298961
H            0.32106959619833       -0.62196774020363       -4.54316288886831
H            1.46241491667444       -0.84490342333659       -2.39485003911992
H            1.33485559919967       -3.04620613915613        0.00024747055357
H            3.74686036114921       -3.69108664289257        0.00031780731687
