64
 energy: -105.237130659443 gnorm: 0.000053350781 xtb: 6.7.1 (edcfbbe)
O            6.23766749900507        1.64135410481556        1.41964529670782
S            5.72163500287245        1.20655166369180        0.12674205817534
O            6.22006798568115        1.98293422106357       -1.00264259851626
C            5.91976589984013       -0.53789393167403       -0.11999577792359
C            7.08431631219253       -1.25243563966170       -0.21086545918103
C            7.01975201666905       -2.62854029488126       -0.40493074969116
C            5.76703941235922       -3.25989964798305       -0.49885002453250
C            4.59869864694188       -2.55232579267741       -0.40736347907348
C            4.63300870819630       -1.14897810083395       -0.20698299294964
C            3.55617270272279       -0.25582877778376       -0.06472250706945
C            2.17349589246632       -0.52678772658968       -0.11251594757807
C            1.26804976602750        0.49607701651696        0.00593023464974
N           -0.12667936263153        0.24448541215447       -0.01926161039224
C           -0.86032502639704        0.78965722441070       -1.05087811666363
C           -0.20476509055245        1.42494345612576       -2.12124385272514
C           -0.92634527748949        2.00301080223477       -3.14050785124987
C           -2.31566557194093        1.94642340059635       -3.13572654595754
C           -2.96884586298806        1.28101610430734       -2.11477258831657
C           -2.26285842507714        0.69215521168269       -1.07543366270518
C           -3.01301644144232       -0.04925493287564       -0.00866377204704
C           -4.00984666904004        0.87308897588397        0.68642595603927
C           -3.74281946682672        1.99792931467948        1.43386218123100
C           -4.81355569802302        2.69649381828571        1.97848469164393
C           -6.11709582724272        2.27021829990430        1.77378513431670
C           -6.38643551764047        1.13639764060039        1.02316271105750
C           -5.32401282661537        0.43411223817409        0.47749805004637
C           -5.28881494068470       -0.77012037853589       -0.33895929849607
C           -6.30736039242595       -1.57889392332586       -0.81664781561185
C           -5.97267876161221       -2.68256369370590       -1.58578750189698
C           -4.64822587242594       -2.97511298399233       -1.87426598261006
C           -3.62120660071918       -2.16861460845901       -1.39893646597753
C           -3.95259197606378       -1.07295966354648       -0.63380867668731
C           -2.11169566326696       -0.68768008022467        1.00724180447809
C           -2.67943400521855       -1.44958299867529        2.01967967728635
C           -1.90351626516383       -2.00398712410762        3.01911263923467
C           -0.53204494729204       -1.77191370856628        3.02946640643820
C            0.05315648383178       -1.02398070919165        2.03430834520864
C           -0.71860658402795       -0.49037369532545        0.98791526756505
C            1.68471043901614        1.85337817626386        0.18819133189330
C            3.04217245403938        2.13501911403904        0.25642724799395
C            3.95179771451769        1.12117981181586        0.12720287962576
H            8.03294500580503       -0.74022380319889       -0.13484367158422
H            7.92553435567403       -3.20828298096955       -0.48376603264446
H            5.73558303167458       -4.32972892179685       -0.64761160336497
H            3.64717832688779       -3.05604976431484       -0.48057685994943
H            1.83015219049467       -1.53959919443172       -0.25796585793672
H            0.87260706019956        1.44822952208875       -2.14622119159481
H           -0.40532030069767        2.49006234648568       -3.95021613866526
H           -2.88138087526464        2.40032493267774       -3.93419030234701
H           -4.04580201503782        1.20913851386390       -2.11878422699667
H           -2.72909825082723        2.33326784982411        1.59685603108575
H           -4.62618167008739        3.58191392467983        2.56770499741110
H           -6.93332928730308        2.82996459909556        2.20661896915965
H           -7.40300126800438        0.80817556927257        0.86763130588094
H           -7.33983348532057       -1.35504438175109       -0.59476812254985
H           -6.75407435576438       -3.32398784943128       -1.96643517577098
H           -4.41027328965969       -3.84002355848167       -2.47558509122840
H           -2.59105775282011       -2.39919883554440       -1.62694562268249
H           -3.74850294988248       -1.59908254410589        2.01951371968857
H           -2.36135938320600       -2.59781169831377        3.79451304603205
H            0.08103127766405       -2.17401668538120        3.82112871682177
H            1.11415141813267       -0.83598564474432        2.06090525042574
H            0.94525457417486        2.62476231792145        0.32152573998371
H            3.38801800137403        3.14807201674777        0.40013218809209
