64
 energy: -105.237144209645 gnorm: 0.000062955689 xtb: 6.7.1 (edcfbbe)
O            6.21191745016085       -1.57210930274555       -1.57105668833081
S            5.71382448566404       -1.21962901670524       -0.24634047645850
O            6.21936428434422       -2.07147298420989        0.82380355877871
C            5.92747676875086        0.50455980834814        0.10704451297481
C            7.09791678147792        1.20390650484461        0.23389536469051
C            7.04487837235413        2.56788910720428        0.50283195075556
C            5.79757440965790        3.20366076951102        0.63258526728927
C            4.62342529977973        2.51125423237996        0.50662293890640
C            4.64593557427003        1.12028486179136        0.23201924295224
C            3.56125207516859        0.24468196623573        0.04731816619660
C            2.18111438260639        0.52307100865267        0.12039879031076
C            1.26675183647004       -0.48528526044299       -0.04520779933603
N           -0.12589341908453       -0.22608488882029        0.00540204588690
C           -0.85389482047098       -0.81974655570439        1.01410333831676
C           -0.19196964872860       -1.50577993047180        2.04859239033504
C           -0.90740743308694       -2.12864255411842        3.04550916326234
C           -2.29657440829671       -2.06894754094549        3.05354965020443
C           -2.95581478158374       -1.35661845751782        2.06874428185023
C           -2.25595112494002       -0.72111093028670        1.05301594395296
C           -3.01157762344381        0.06692178327080        0.02425209361349
C           -3.98829332639271       -0.83338059663397       -0.72706813095144
C           -3.69740789109061       -1.91139915204308       -1.53233949188522
C           -4.75252026669486       -2.59608916706976       -2.12310675816660
C           -6.06429168335407       -2.20277319207528       -1.90561661499328
C           -6.35760676498710       -1.11671291942647       -1.09570246020819
C           -5.31091298640582       -0.42797445206011       -0.50422688936286
C           -5.30128752004490        0.73054575972478        0.37660877059645
C           -6.33621689692510        1.49507368400610        0.89067945629336
C           -6.02488292222700        2.56059649749006        1.72104948317737
C           -4.70725903905567        2.85964257726049        2.03323956607483
C           -3.66386301012118        2.09773529566872        1.52136057728704
C           -3.97207457369085        1.03941799100668        0.69623178283431
C           -2.11423508177895        0.77039758052825       -0.95152652717898
C           -2.68539562964620        1.59617628790692       -1.91051125421574
C           -1.91363820090258        2.20916224238906       -2.87848623003413
C           -0.54348946869476        1.97192715927089       -2.91342697245565
C            0.04510798087199        1.16086200099589       -1.97111088511596
C           -0.72158827996297        0.56826657680897       -0.95316419397289
C            1.67160898749597       -1.83396092307557       -0.30243636247616
C            3.02630819086714       -2.12149694899242       -0.39723867029876
C            3.94473380640926       -1.12261728508042       -0.22228412303388
H            8.04234292068915        0.68947729919401        0.12690452382378
H            7.95550803355099        3.13518009511234        0.61092995871141
H            5.77501499892386        4.26431719129110        0.83781035453184
H            3.67617055284625        3.01793186164142        0.60878733541462
H            1.84705805706596        1.52901452798462        0.32373768622803
H            0.88550676824627       -1.53241812836178        2.06395422916814
H           -0.38175021309426       -2.65369045712048        3.82798771539648
H           -2.85745348394127       -2.55788351085253        3.83457534726956
H           -4.03258957656845       -1.28356596804486        2.08353129094173
H           -2.67723025780750       -2.22089291372907       -1.70583968578620
H           -4.54629419472990       -3.44423452921178       -2.75900466454261
H           -6.86809133944933       -2.75052490412865       -2.37548045989733
H           -7.38065901479147       -0.81440260246401       -0.93038140988861
H           -7.36354072941987        1.26618638158573        0.65072089885921
H           -6.81933606591240        3.16668724017272        2.13138232701829
H           -4.48765533102791        3.69361023978615        2.68318660825754
H           -2.63897497474034        2.33297434477423        1.76778076131090
H           -3.75384085363723        1.74912042877530       -1.89385046273434
H           -2.37390244483278        2.85288907984729       -3.61145794544307
H            0.06579581483260        2.41955074929455       -3.68328711649906
H            1.10503748323181        0.97067594210705       -2.01686561496939
H            0.92542903721232       -2.59213152982927       -0.46946389346680
H            3.36296936078542       -3.12790109401957       -0.59810867507956
