64
 energy: -105.327111855978 gnorm: 0.000068128424 xtb: 6.7.1 (edcfbbe)
O            6.24427560306520        1.55226346532964        1.52111378543130
S            5.74458277645947        1.20593039759796        0.20857240266867
O            6.24951716897487        1.99617020630456       -0.89278983226956
C            5.91192611408103       -0.55021770589709       -0.11037219616668
C            7.06697604772424       -1.28563198448704       -0.22943034823581
C            6.95537734056560       -2.65117297533851       -0.46619056578787
C            5.70467684652747       -3.24057288076884       -0.57341046811414
C            4.54596354079866       -2.48861112698739       -0.45226090442047
C            4.64529420491030       -1.12168352042188       -0.21740118351695
C            3.54462891808957       -0.17027617692172       -0.05487965297819
C            2.18630566499946       -0.44924817120849       -0.12226361611457
C            1.26625965308575        0.58030658491364        0.06864963770351
N           -0.12116727914494        0.30802547571430        0.00742621768508
C           -0.86039291350238        0.82270164954999       -1.05431042698883
C           -0.21785882576444        1.47260942370997       -2.11201585331532
C           -0.93859885532099        1.99050532739737       -3.16921023012210
C           -2.31672755638257        1.86172320509589       -3.20374403956168
C           -2.95572142462171        1.19273152582975       -2.17682135873344
C           -2.24719830490790        0.66433097490933       -1.10692863514650
C           -3.00622203698593       -0.06761500466457       -0.02694484552910
C           -3.98458229231036        0.86897956828319        0.66114017137171
C           -3.70967184821342        2.00400163857576        1.39166512180829
C           -4.77055124375562        2.71695007030585        1.93510283527013
C           -6.07843746806871        2.29566393295495        1.74759968636401
C           -6.35938570535980        1.15220629419241        1.01614477629509
C           -5.30492475497116        0.43747172599061        0.47164289430395
C           -5.28386697188530       -0.77854443446759       -0.32839107859730
C           -6.31226574545361       -1.58685689611215       -0.78479148869624
C           -5.99236573215797       -2.70359722110805       -1.54125025921959
C           -4.67214091506756       -3.00770999622489       -1.83769788447171
C           -3.63720965362240       -2.20067698473666       -1.38280033231051
C           -3.95011106174170       -1.09048424292169       -0.62942543891531
C           -2.09266767189954       -0.70034317333633        0.99494118147400
C           -2.65695147724926       -1.49209929146641        1.98516578046141
C           -1.88730013770001       -2.04672200904194        2.99028499814962
C           -0.52859635353665       -1.78332635774111        3.02008942203367
C            0.05046349547679       -1.00002232443578        2.04182256950891
C           -0.71471513068321       -0.46673290464198        1.00079439423040
C            1.70092664772516        1.88165254659838        0.31722354328283
C            3.05733076712807        2.16770317604950        0.37378317261438
C            3.95286774977939        1.14011407864925        0.19005899670896
H            8.02739499284520       -0.80255801727649       -0.13934479987676
H            7.84676633257682       -3.25108715755316       -0.56369087141053
H            5.63134092503498       -4.30214815852137       -0.75472864554926
H            3.58110574879878       -2.96244521696446       -0.53673687735605
H            1.83067493962492       -1.44784261540211       -0.32136928788933
H            0.85685525855814        1.56945879283254       -2.10897558175485
H           -0.41703644449207        2.49234625916949       -3.97083949827531
H           -2.88677466205358        2.26937755911393       -4.02446931292796
H           -4.02918233348383        1.07213883522082       -2.19910900499293
H           -2.69158610762345        2.33368998413916        1.54081851000061
H           -4.57453457214910        3.61028292460975        2.51029154300313
H           -6.88846563174068        2.86629253009638        2.17891878199520
H           -7.37970473181626        0.82743190950324        0.87443276314938
H           -7.34192454470938       -1.35356492628341       -0.55672706254965
H           -6.78173990265277       -3.34571880085158       -1.90508373206051
H           -4.44613869961137       -3.88300107903202       -2.42937666398174
H           -2.60950711495275       -2.43879285009766       -1.61617183872836
H           -3.72308337568633       -1.66659347775738        1.96515710080920
H           -2.34532904417691       -2.66266687159037        3.74893001745005
H            0.08777928643304       -2.18436451809512        3.81106244550533
H            1.10740540268518       -0.79092727363405        2.09471259317715
H            0.97289218659467        2.66558059252794        0.45864789084115
H            3.41141828034161        3.16861153169914        0.56355991496443
