  33
        -62.99243296
 N          5.6675207859        2.6353469412       -0.0021431466
 C          4.7293663592        1.9765681777        0.0057596691
 C          3.5586672778        1.1852775914        0.0011961820
 C          2.3062030528        1.8058391183        0.0000947754
 C          1.1328986557        1.0616341551       -0.0009110398
 N         -0.0742425079        1.6221811906       -0.0012072326
 C         -1.1671096970        0.9104085355       -0.0008527219
 C         -1.0829339286       -0.5306184063        0.0001582940
 N          0.0978915510       -1.0989939142       -0.0002093711
 C          1.2139755785       -0.3959900862       -0.0009685811
 C          2.4874189386       -0.9959940989       -0.0016620358
 C          2.5665036216       -2.3999152399       -0.0037694401
 N          2.6210724207       -3.5460213365       -0.0089072023
 C          3.6600621578       -0.2105146948       -0.0002394683
 C          4.9258310808       -0.8334088463       -0.0010381592
 N          5.9574718673       -1.3341793960        0.0084168605
 C         -2.4213188255       -1.0631717984        0.0011229380
 C         -2.9720922300       -2.3238873114        0.0030755674
 C         -4.3753506680       -2.4296763265        0.0040271915
 C         -5.2124155803       -1.3384846518        0.0028206869
 C         -4.6766367738       -0.0281555282        0.0005421888
 C         -5.3683554651        1.2055947149       -0.0010979191
 C         -4.6728334346        2.3921421743       -0.0022440195
 C         -3.2669946596        2.4582849475       -0.0015969953
 C         -2.5671310566        1.2754588615       -0.0007778989
 C         -3.2863889103        0.0578901465        0.0002233327
 H          2.2361474646        2.8820671238        0.0006665050
 H         -2.3573737156       -3.2103869464        0.0048195804
 H         -4.8063957805       -3.4201404922        0.0057651966
 H         -6.2833620804       -1.4756284405        0.0037677344
 H         -6.4481362192        1.2104920879        0.0008842801
 H         -5.2225383371        3.3219685232       -0.0022696530
 H         -2.7671584064        3.4143998028       -0.0033786663
