  70
  -121.039585445900        1.00000000000000      !
 O         -6.5303342763       -0.8586662415        1.1056600022
 N         -5.8627431481       -1.5937172134        0.4043599269
 O         -6.3143752014       -2.5214973124       -0.2381985078
 C         -4.4507058843       -1.3533369097        0.3338365722
 C         -3.8950960924       -0.3093117186        1.0680067697
 C         -2.5418235287       -0.0719605503        0.9895008260
 C         -1.7271859932       -0.8674623603        0.1763629988
 C         -0.2863405579       -0.6253080383        0.0739012382
 C          0.2666771517        0.6219018288        0.0812288977
 C          1.7090492100        0.8579863875        0.1862348308
 C          2.5174485824        0.0621675517        1.0050653692
 C          3.8724528852        0.2899327424        1.0819831783
 C          4.4356993267        1.3241558106        0.3397266602
 N          5.8499489736        1.5529066194        0.4063284770
 O          6.3102212706        2.4645219056       -0.2530466219
 O          6.5108523040        0.8235896835        1.1198008518
 C          3.6448243372        2.1419888557       -0.4610640031
 C          2.2895078671        1.9104096375       -0.5294074862
 N         -0.5282416185        1.7534889069       -0.0908788381
 C         -0.5081484542        2.8749796611        0.7220886094
 C          0.2816439833        3.1451187048        1.8289025529
 C          0.0794317104        4.3455345103        2.4846365608
 C         -0.8893035822        5.2509701593        2.0597326555
 C         -1.6919208586        4.9760672306        0.9697126135
 C         -1.5058540695        3.7776692428        0.2942620341
 C         -2.1488963564        3.1710107464       -0.8406048190
 C         -3.1713613732        3.5791037426       -1.6865859379
 C         -3.5397252882        2.7485212097       -2.7262051360
 C         -2.8875746049        1.5370589899       -2.9407652428
 C         -1.8683651312        1.1103551505       -2.1107118615
 C         -1.5181799637        1.9246910468       -1.0448334035
 N          0.5147944543       -1.7516408026       -0.1077905506
 C          0.5119578007       -2.8758496991        0.7017434678
 C         -0.2817882083       -3.1676937805        1.8002121222
 C         -0.0617728551       -4.3676663779        2.4511358784
 C          0.9286593616       -5.2513366069        2.0304024657
 C          1.7349126894       -4.9547654044        0.9487371106
 C          1.5302967774       -3.7571017372        0.2773912193
 C          2.1688755617       -3.1339742279       -0.8510510909
 C          3.2050798455       -3.5182970980       -1.6914961269
 C          3.5610442746       -2.6783249649       -2.7278858424
 C          2.8828328674       -1.4817266096       -2.9455054753
 C          1.8500634365       -1.0785250522       -2.1205930342
 C          1.5131910422       -1.9010219628       -1.0566348113
 C         -2.3004913888       -1.9284635889       -0.5329492786
 C         -3.6537848121       -2.1702994662       -0.4620251461
 H         -4.5357756153        0.2969904042        1.6890969359
 H         -2.1074790522        0.7224075948        1.5750501696
 H          2.0768160652       -0.7257124860        1.5948769360
 H          4.5087419882       -0.3166760321        1.7072913207
 H          4.1083056193        2.9404055824       -1.0194903708
 H          1.6699698890        2.5356962174       -1.1543151278
 H          1.0293895366        2.4453880524        2.1711434332
 H          0.6855585678        4.5832299915        3.3455747499
 H         -1.0145883550        6.1786738591        2.5965702230
 H         -2.4499336420        5.6730577632        0.6476149922
 H         -3.6615624330        4.5279414157       -1.5329192979
 H         -4.3358302483        3.0436398003       -3.3922446810
 H         -3.1800329377        0.9182210225       -3.7755122092
 H         -1.3602124387        0.1770679590       -2.2986397755
 H         -1.0463316931       -2.4849613269        2.1397361041
 H         -0.6698251199       -4.6213619815        3.3061437983
 H          1.0694890789       -6.1780732218        2.5651175598
 H          2.5105416287       -5.6340452218        0.6305132416
 H          3.7148054587       -4.4566003746       -1.5366552320
 H          4.3677808808       -2.9545923840       -3.3892506057
 H          3.1664192171       -0.8554766723       -3.7777507441
 H          1.3220045811       -0.1567388741       -2.3104293397
 H         -1.6764906174       -2.5528633687       -1.1542480022
 H         -4.1112352730       -2.9761851348       -1.0146232924
