  70
  -121.448738710000       0.334656569729691      !
 O         -6.5303342763       -0.8586662415        1.1056600022
 N         -5.8627431481       -1.5937172134        0.4043599269
 O         -6.3143752014       -2.5214973124       -0.2381985078
 C         -4.4507058843       -1.3533369097        0.3338365722
 C         -3.8950960924       -0.3093117186        1.0680067697
 C         -2.5418235287       -0.0719605503        0.9895008260
 C         -1.7271859932       -0.8674623603        0.1763629988
 C         -0.2863405579       -0.6253080383        0.0739012382
 C          0.2666771517        0.6219018288        0.0812288977
 C          1.7090492100        0.8579863875        0.1862348308
 C          2.5174485824        0.0621675517        1.0050653692
 C          3.8724528852        0.2899327424        1.0819831783
 C          4.4356993267        1.3241558106        0.3397266602
 N          5.8499489736        1.5529066194        0.4063284770
 O          6.3102212706        2.4645219056       -0.2530466219
 O          6.5108523040        0.8235896835        1.1198008518
 C          3.6448243372        2.1419888557       -0.4610640031
 C          2.2895078671        1.9104096375       -0.5294074862
 N         -0.5282416185        1.7534889069       -0.0908788381
 C         -0.5081484542        2.8749796611        0.7220886094
 C          0.2816439833        3.1451187048        1.8289025529
 C          0.0794317104        4.3455345103        2.4846365608
 C         -0.8893035822        5.2509701593        2.0597326555
 C         -1.6919208586        4.9760672306        0.9697126135
 C         -1.5058540695        3.7776692428        0.2942620341
 C         -2.1488963564        3.1710107464       -0.8406048190
 C         -3.1713613732        3.5791037426       -1.6865859379
 C         -3.5397252882        2.7485212097       -2.7262051360
 C         -2.8875746049        1.5370589899       -2.9407652428
 C         -1.8683651312        1.1103551505       -2.1107118615
 C         -1.5181799637        1.9246910468       -1.0448334035
 N          0.5147944543       -1.7516408026       -0.1077905506
 C          0.5119578007       -2.8758496991        0.7017434678
 C         -0.2817882083       -3.1676937805        1.8002121222
 C         -0.0617728551       -4.3676663779        2.4511358784
 C          0.9286593616       -5.2513366069        2.0304024657
 C          1.7349126894       -4.9547654044        0.9487371106
 C          1.5302967774       -3.7571017372        0.2773912193
 C          2.1688755617       -3.1339742279       -0.8510510909
 C          3.2050798455       -3.5182970980       -1.6914961269
 C          3.5610442746       -2.6783249649       -2.7278858424
 C          2.8828328674       -1.4817266096       -2.9455054753
 C          1.8500634365       -1.0785250522       -2.1205930342
 C          1.5131910422       -1.9010219628       -1.0566348113
 C         -2.3004913888       -1.9284635889       -0.5329492786
 C         -3.6537848121       -2.1702994662       -0.4620251461
 H         -4.5357756153        0.2969904042        1.6890969359
 H         -2.1074790522        0.7224075948        1.5750501696
 H          2.0768160652       -0.7257124860        1.5948769360
 H          4.5087419882       -0.3166760321        1.7072913207
 H          4.1083056193        2.9404055824       -1.0194903708
 H          1.6699698890        2.5356962174       -1.1543151278
 H          1.0293895366        2.4453880524        2.1711434332
 H          0.6855585678        4.5832299915        3.3455747499
 H         -1.0145883550        6.1786738591        2.5965702230
 H         -2.4499336420        5.6730577632        0.6476149922
 H         -3.6615624330        4.5279414157       -1.5329192979
 H         -4.3358302483        3.0436398003       -3.3922446810
 H         -3.1800329377        0.9182210225       -3.7755122092
 H         -1.3602124387        0.1770679590       -2.2986397755
 H         -1.0463316931       -2.4849613269        2.1397361041
 H         -0.6698251199       -4.6213619815        3.3061437983
 H          1.0694890789       -6.1780732218        2.5651175598
 H          2.5105416287       -5.6340452218        0.6305132416
 H          3.7148054587       -4.4566003746       -1.5366552320
 H          4.3677808808       -2.9545923840       -3.3892506057
 H          3.1664192171       -0.8554766723       -3.7777507441
 H          1.3220045811       -0.1567388741       -2.3104293397
 H         -1.6764906174       -2.5528633687       -1.1542480022
 H         -4.1112352730       -2.9761851348       -1.0146232924
  70
  -121.448738120000       0.334447697145133      !
 O         -6.5413040615       -0.8206819206       -1.0898784473
 N         -5.8638153669       -1.5884481480       -0.4343696302
 O         -6.3054850234       -2.5497065703        0.1646793004
 C         -4.4519232905       -1.3461570813       -0.3652805219
 C         -3.9074778541       -0.2615147852       -1.0471578963
 C         -2.5543359174       -0.0225532183       -0.9692616985
 C         -1.7286266574       -0.8574837179       -0.2085852326
 C         -0.2874762416       -0.6178854373       -0.1027714479
 C          0.2673904961        0.6268280364       -0.0461663266
 C          1.7111071686        0.8649742403       -0.1322525801
 C          2.2869257756        1.8824148369        0.6359903258
 C          3.6423114152        2.1182417843        0.5863035582
 C          4.4385227707        1.3394352086       -0.2474724541
 N          5.8527538314        1.5733222836       -0.2967169662
 O          6.5175470604        0.8827888543       -1.0443431773
 O          6.3090576548        2.4499272552        0.4111002368
 C          3.8805032273        0.3402574962       -1.0397869556
 C          2.5250884399        0.1085154951       -0.9821331563
 N         -0.5241359112        1.7523704980        0.1739404347
 C         -1.5219003642        1.8851088655        1.1259250223
 C         -1.8854433061        1.0253885118        2.1509351953
 C         -2.9122243448        1.4180999761        2.9884258587
 C         -3.5589059916        2.6400229961        2.8212689983
 C         -3.1765806322        3.5152952735        1.8242305989
 C         -2.1461607519        3.1418617087        0.9718788941
 C         -1.4889736391        3.7971113772       -0.1273687958
 C         -1.6625305479        5.0265522757       -0.7480406777
 C         -0.8470907554        5.3480757268       -1.8157491549
 C          0.1215712247        4.4584161162       -2.2726491877
 C          0.3109487319        3.2274046828       -1.6718699545
 C         -0.4911845791        2.9100804355       -0.5866951745
 N          0.5124087342       -1.7544684779        0.0118886718
 C          1.5072754303       -1.9683995799        0.9512345215
 C          1.8491643284       -1.2129758922        2.0622095957
 C          2.8773253199       -1.6730207000        2.8629393293
 C          3.5458717355       -2.8601831402        2.5754162012
 C          3.1860200692       -3.6334952905        1.4895222603
 C          2.1549151220       -3.1912749952        0.6716460833
 C          1.5162584341       -3.7383776048       -0.4955505778
 C          1.7168223912       -4.8912164423       -1.2425270091
 C          0.9143819989       -5.1115302683       -2.3450430215
 C         -0.0690749334       -4.1964906331       -2.7118024930
 C         -0.2855240013       -3.0403891011       -1.9848514609
 C          0.5050435177       -2.8255314568       -0.8665609353
 C         -2.2910451700       -1.9580423839        0.4474204902
 C         -3.6439476668       -2.2017469445        0.3770720597
 H         -4.5573376829        0.3747890492       -1.6275119465
 H         -2.1292817824        0.8046989708       -1.5146108494
 H          1.6633830248        2.4771879886        1.2861920148
 H          4.1015019890        2.8906690523        1.1834444745
 H          4.5210837808       -0.2363711362       -1.6886580441
 H          2.0890632607       -0.6500997095       -1.6121457831
 H         -1.3827152305        0.0824760789        2.3016295923
 H         -3.2165998721        0.7629282720        3.7905153561
 H         -4.3618682354        2.9073099577        3.4909401181
 H         -3.6613864713        4.4722509524        1.7084724683
 H         -2.4209647224        5.7118038768       -0.4023612682
 H         -0.9632463606        6.3001357773       -2.3104094296
 H          0.7371844349        4.7321053963       -3.1159877888
 H          1.0584735829        2.5406681771       -2.0398104164
 H          1.3286543988       -0.2991978724        2.3047098798
 H          3.1647649807       -1.0994509362        3.7309978731
 H          4.3483963206       -3.1827407056        3.2207510267
 H          3.6889047652       -4.5648915015        1.2799484456
 H          2.4864519150       -5.5949957141       -0.9657102463
 H          1.0520835276       -6.0025648211       -2.9381902476
 H         -0.6745231754       -4.3903941843       -3.5841236776
 H         -1.0443745046       -2.3320687741       -2.2821604209
 H         -1.6585043257       -2.6124111724        1.0279326202
 H         -4.0923768062       -3.0387764517        0.8893134296
  70
  -121.448728030000       0.330895733125176      !
 O         -6.3064653377       -2.5102442728       -0.3553283705
 N         -5.8646256108       -1.5912568562        0.3064903053
 O         -6.5437600658       -0.8602219639        1.0007644483
 C         -4.4506884036       -1.3542334455        0.2655724728
 C         -3.6414403939       -2.1645630775       -0.5245013947
 C         -2.2867347192       -1.9242158019       -0.5692040458
 C         -1.7245374417       -0.8708152327        0.1598866963
 C         -0.2822750177       -0.6265946634        0.0730974946
 C          0.2679802355        0.6210703300        0.0815684603
 C          1.7108223370        0.8630236350        0.1694644473
 C          2.2733725817        1.9203841511       -0.5533261365
 C          3.6291236677        2.1557415139       -0.5126488932
 C          4.4389018825        1.3360119432        0.2669251489
 N          5.8542005178        1.5659765326        0.3010997855
 O          6.5347774202        0.8217679709        0.9798847333
 O          6.2957633820        2.4918858352       -0.3514852980
 C          3.8938641348        0.2985888657        1.0181022520
 C          2.5378882452        0.0677721962        0.9697786604
 N         -0.5303865720        1.7534880901       -0.0734643559
 C         -0.5083674522        2.8600500026        0.7598404691
 C          0.2926364062        3.1152569398        1.8621173406
 C          0.0908177900        4.3024010363        2.5416850674
 C         -0.8886126954        5.2090205741        2.1446635394
 C         -1.7018149117        4.9489321060        1.0588468199
 C         -1.5158487038        3.7643609046        0.3592726713
 C         -2.1672461774        3.1745255360       -0.7796741667
 C         -3.2015120523        3.5913141412       -1.6068501140
 C         -3.5750449901        2.7780099038       -2.6582283818
 C         -2.9164697004        1.5756981601       -2.9030710140
 C         -1.8855505652        1.1405035591       -2.0921212114
 C         -1.5302634492        1.9366263897       -1.0142123475
 N          0.5181823825       -1.7559835846       -0.0946547657
 C          0.5066266426       -2.8675709344        0.7325255890
 C         -0.2998019229       -3.1426189895        1.8260258515
 C         -0.0852714020       -4.3308474959        2.4999048680
 C          0.9118898345       -5.2193252260        2.1062218431
 C          1.7301954728       -4.9395109239        1.0291433562
 C          1.5313067319       -3.7538343564        0.3350718509
 C          2.1832028663       -3.1473746900       -0.7948370810
 C          3.2321072253       -3.5421832375       -1.6143641873
 C          3.6019281097       -2.7167492507       -2.6575543740
 C          2.9249364050       -1.5247774623       -2.9027332928
 C          1.8792954094       -1.1115329547       -2.0992995178
 C          1.5284126192       -1.9187610390       -1.0281567658
 C         -2.5512556770       -0.0835966386        0.9685454192
 C         -3.9061288719       -0.3198803388        1.0213388677
 H         -4.0904281581       -2.9638097988       -1.0934955174
 H         -1.6528500749       -2.5426849789       -1.1865112987
 H          1.6392197313        2.5455543861       -1.1635393087
 H          4.0783550509        2.9576990966       -1.0776065770
 H          4.5449346023       -0.3086853616        1.6272988875
 H          2.1120974915       -0.7222055508        1.5674879814
 H          1.0486334107        2.4142983576        2.1830679005
 H          0.7048183596        4.5278430879        3.4003375829
 H         -1.0147075239        6.1251632937        2.7008973978
 H         -2.4684550457        5.6464097095        0.7587859832
 H         -3.6960459483        4.5339590427       -1.4304764748
 H         -4.3805509074        3.0799081825       -3.3098255985
 H         -3.2146108407        0.9702019247       -3.7455375050
 H         -1.3731861769        0.2142037673       -2.3021629424
 H         -1.0698584658       -2.4561733569        2.1447837776
 H         -0.7035483111       -4.5715595982        3.3513608973
 H          1.0477855672       -6.1368385751        2.6580949427
 H          2.5107001310       -5.6225806478        0.7316979592
 H          3.7410147518       -4.4771716489       -1.4381993949
 H          4.4191078476       -3.0009479340       -3.3025468435
 H          3.2204164456       -0.9100312823       -3.7393551483
 H          1.3527441078       -0.1932702662       -2.3094920458
 H         -2.1257112108        0.7034306618        1.5702639140
 H         -4.5563820859        0.2798150384        1.6388770776
