  47
        -78.80750143
 C          7.6437675679        0.6680245978       -0.9700004114
 N          6.2116914891        0.6275841147       -0.8793483376
 C          5.2948998038        1.2730500071       -1.6558915218
 N          4.0604348808        1.0393241516       -1.3317567553
 C          4.1236402644        0.1791735506       -0.2642250275
 C          3.1813032119       -0.4612763265        0.5533241066
 C          1.7376256740       -0.3277605130        0.4129829219
 C          1.1811506265        0.4630106831       -0.5941837282
 C         -0.1887462827        0.5702477339       -0.7147468287
 C         -1.0284712772       -0.1074627895        0.1668737235
 N         -2.4285583517       -0.0019043459        0.0382710103
 C         -3.2028535062       -1.1323998471       -0.2341542258
 C         -2.6397828560       -2.3838770807       -0.4516012860
 C         -3.4378802553       -3.4850998774       -0.7216019313
 C         -4.8097552491       -3.3534009091       -0.7910096877
 C         -5.3853948319       -2.1043581765       -0.6105323368
 C         -4.5940512884       -1.0028937799       -0.3434653353
 O         -5.2346088591        0.2041759704       -0.2122518546
 C         -4.4593356803        1.3065045114        0.0493643300
 C         -5.1176733792        2.5135554227        0.1919873122
 C         -4.4082486865        3.6673714174        0.4911723431
 C         -3.0409738995        3.5980257363        0.6643611626
 C         -2.3753875777        2.3901949357        0.5199050837
 C         -3.0666505848        1.2316413178        0.1877276725
 C         -0.4757364038       -0.8941248585        1.1765637081
 C          0.8921790664       -1.0028637224        1.2967228050
 N          3.6439152327       -1.2518848468        1.5266442186
 C          4.9417253243       -1.4127945296        1.6955556327
 N          5.9266999159       -0.8731290961        0.9964306112
 C          5.4851862701       -0.0837406605        0.0263283416
 H          8.0422495958        0.0222447417       -0.1894640942
 H          7.9757147536        0.3088034197       -1.9456973243
 H          8.0082471799        1.6861460730       -0.8222394503
 H          5.5879952730        1.9154730880       -2.4639507514
 H          1.8333086710        0.9807829762       -1.2798035010
 H         -0.6216847366        1.1733575764       -1.4994437678
 H         -1.5678664696       -2.4986651247       -0.4177476650
 H         -2.9725212865       -4.4458368517       -0.8800095982
 H         -5.4355063210       -4.2077969192       -0.9953287009
 H         -6.4520448483       -1.9616320863       -0.6789204293
 H         -6.1889994011        2.5278073692        0.0701989485
 H         -4.9301108567        4.6053551585        0.5971361550
 H         -2.4769060903        4.4826124819        0.9174599255
 H         -1.3089065164        2.3474866256        0.6754010095
 H         -1.1298638011       -1.4099326669        1.8643344903
 H          1.3357365860       -1.6029210241        2.0753318202
 H          5.2384640898       -2.0676199870        2.5041740020
