47
 energy: -78.737489669279 gnorm: 0.000076629502 xtb: 6.7.1 (edcfbbe)
C            7.62361574475748        0.61258267329806       -1.03741585690523
N            6.19228057689344        0.57081270263676       -0.93353357810538
C            5.27665506776060        1.14004972828712       -1.77639340781010
N            4.04107262303606        0.91252388696441       -1.39908154001161
C            4.11948774880817        0.16836684312918       -0.27823544229657
C            3.15468411475604       -0.40098329589878        0.61714752088930
C            1.75207115771058       -0.29668997521891        0.45842721684061
C            1.17380839425583        0.41389503732246       -0.61704576656909
C           -0.18750286821302        0.50764282650823       -0.74511257241213
C           -1.02958817748813       -0.10647626350394        0.18787037696231
N           -2.43739419757569       -0.00592120310737        0.04833792734757
C           -3.19327112533161       -1.12230107928984       -0.26938328475286
C           -2.61238926816475       -2.36962062445899       -0.49134066379976
C           -3.39682965945736       -3.46550238594233       -0.80086873291178
C           -4.77187166142384       -3.33961054543107       -0.90267054595230
C           -5.36549762093430       -2.10313463923458       -0.70729161976273
C           -4.58791663228850       -1.00048707716056       -0.39823950545771
O           -5.23137530338728        0.19604722815170       -0.23896989609131
C           -4.46981227858329        1.29116261206820        0.06448075173620
C           -5.12909750757231        2.49739770044909        0.22701275659483
C           -4.41770551750812        3.63927717549789        0.55770073531668
C           -3.04683356987556        3.56672587462456        0.73795157280525
C           -2.37985848061501        2.36632249011400        0.57613740739672
C           -3.07517343308348        1.21148875115197        0.22215498534738
C           -0.47527659461746       -0.82016785749707        1.25603614039990
C            0.88368164189908       -0.91612716087613        1.38946077758420
N            3.67089484187726       -1.09582611832561        1.66408263817269
C            4.94148015022638       -1.25393799432575        1.85832799055961
N            5.91209351442478       -0.75702042838669        1.08495934643871
C            5.47420226268253       -0.06103517221977        0.02914321606481
H            8.04130670472708        0.07036664412661       -0.19124055181495
H            7.95376486253952        0.14364838768779       -1.96683367053503
H            7.97699669875563        1.64549500368234       -1.01667971601115
H            5.55705253752084        1.70767243712307       -2.63961423832103
H            1.82633694777169        0.87905172335806       -1.33965887921258
H           -0.62632848691065        1.04695592556477       -1.57300977429432
H           -1.54085112584701       -2.46854293610112       -0.42438281824820
H           -2.92613648280788       -4.42213689302059       -0.96600415194311
H           -5.38364554719222       -4.19500517000561       -1.14147321134340
H           -6.43186723270589       -1.96971653495325       -0.79419686167903
H           -6.19885488850634        2.51835648680856        0.09405650673942
H           -4.93716834655822        4.57627106355796        0.68098499452224
H           -2.48809485751370        4.44876788075775        1.00953968016510
H           -1.31373210850047        2.31114835381543        0.72712366772535
H           -1.13431838401543       -1.28288297686044        1.97744758204042
H            1.32641891017381       -1.45533141035516        2.21256144680261
H            5.25790522597870       -1.82503716763502        2.71857835899539
