47
 energy: -78.737489867730 gnorm: 0.000174505420 xtb: 6.7.1 (edcfbbe)
C            7.62469723948206        0.57999765830181       -1.06619175543569
N            6.19337086532956        0.53970231874304       -0.96150707935131
C            5.27756281520335        1.08431149216028       -1.82032586782911
N            4.04205517576309        0.86755615708973       -1.43650562219845
C            4.12067926677427        0.15597896977338       -0.29475742350966
C            3.15601984521314       -0.38715187375916        0.61689724810670
C            1.75335957898890       -0.28643233323455        0.45618313775778
C            1.17457183088671        0.39447051143642       -0.63804985367960
C           -0.18685635521010        0.48570089557223       -0.76735628153231
C           -1.02831885973677       -0.10177139562882        0.18307264717527
N           -2.43638028435056       -0.00463515430256        0.04315310896565
C           -3.19266454746506       -1.12965904379457       -0.24120049241002
C           -2.61116853226104       -2.38125340589878       -0.43570826409466
C           -3.39590542334776       -3.48585494926865       -0.71165094233782
C           -4.77188563311492       -3.36473408060687       -0.80631623402598
C           -5.36626416811893       -2.12459271315468       -0.63817305892665
C           -4.58836065240598       -1.01319628211633       -0.36320128958979
O           -5.23254404133249        0.18613653557192       -0.22976577797913
C           -4.47048433776237        1.28972487825575        0.04012103427183
C           -5.13049272443237        2.49877080557976        0.17669809271278
C           -4.41853458027033        3.64970694727517        0.47306728293391
C           -3.04626683748794        3.58375252849422        0.64493266513434
C           -2.37857612619921        2.38052176875644        0.50899085119859
C           -3.07465065276758        1.21603503747807        0.18993261953311
C           -0.47348512303688       -0.78622089696656        1.26996747452087
C            0.88550479009908       -0.87929435489588        1.40481243904266
N            3.67235018937347       -1.05189694754576        1.68305967817358
C            4.94294802625019       -1.20446987670053        1.88167073261360
N            5.91342946212438       -0.72982413019955        1.09424978259057
C            5.47546313920219       -0.06440097690802        0.01900759892361
H            7.95614010131492        0.08036087400373       -1.97898544263113
H            7.97625062169252        1.61363145881426       -1.08035708728434
H            8.04282684067482        0.06745182535973       -0.20193498323826
H            5.55790798485458        1.62677826744906       -2.69958873409302
H            1.82675492254980        0.83895147564040       -1.37386921884995
H           -0.62611203486141        1.00226623044105       -1.60940545366881
H           -1.53899450243187       -2.47666939604733       -0.37386643049173
H           -2.92476681211655       -4.44564084049030       -0.85593031146046
H           -5.38391588002754       -4.22693345298242       -1.01849309685516
H           -6.43349834055355       -1.99520993886062       -0.72038554680207
H           -6.20122796811225        2.51483557561802        0.05117069734023
H           -4.93861570722941        4.58876857868229        0.57638079146374
H           -2.48696679880833        4.47326183808717        0.88970653646499
H           -1.31128796900634        2.33069040538175        0.65349431961647
H           -1.13226023379788       -1.22869375339987        2.00419942024289
H            1.32870151315134       -1.39586966166911        2.24205274209848
H            5.25941861905591       -1.75078697253951        2.75780986474805
