47
 energy: -78.807508459528 gnorm: 0.000058786212 xtb: 6.7.1 (edcfbbe)
C            7.63993306635211        0.67846950186006       -0.97038624802286
N            6.20808993778039        0.63305008663277       -0.87857706528701
C            5.28896054672481        1.27419775800147       -1.65593770815223
N            4.05540101400795        1.03681071701587       -1.33121202320968
C            4.12177075292337        0.17784011761632       -0.26282563853129
C            3.18158078538633       -0.46484177794396        0.55551687251218
C            1.73759447570585       -0.33498954967623        0.41472065205550
C            1.18044257309636        0.45175202096350       -0.59524667372163
C           -0.18944569509289        0.55858735203713       -0.71523287182989
C           -1.02851051998286       -0.11538317150315        0.16982667557220
N           -2.42867798241200       -0.00673326918135        0.04390267785082
C           -3.20577539315347       -1.13440004752278       -0.23154617414145
C           -2.64548546599145       -2.38636155064943       -0.45318356366865
C           -3.44616720558971       -3.48472115122694       -0.72738167219848
C           -4.81769998182793       -3.34944199103944       -0.79671195227291
C           -5.39057047663002       -2.09984449920120       -0.61107912290025
C           -4.59672473014041       -1.00128690900812       -0.33952784048074
O           -5.23441703164926        0.20667001764746       -0.20223764165838
C           -4.45545638697971        1.30766897520080        0.05414128376942
C           -5.10995981284432        2.51714372434509        0.19382927699892
C           -4.39655840066904        3.66998257139832        0.48734589127639
C           -3.02913353274347        3.59732829420239        0.65777953976973
C           -2.36738989472826        2.38701665891221        0.51646569433499
C           -3.06272611940257        1.22925780798699        0.19010257433692
C           -0.47529481883844       -0.89983336333126        1.18089114997728
C            0.89279956168878       -1.00811947552360        1.30056765218318
N            3.64673416808178       -1.25254333050235        1.52994065437677
C            4.94516395099739       -1.40865524171100        1.69905599535843
N            5.92830315773101       -0.86644736785562        0.99929299268216
C            5.48422227319956       -0.07992500351170        0.02798439159294
H            8.04153282449202        0.03789741519725       -0.18695848907236
H            7.97242123486557        0.31566814035954       -1.94476430997809
H            8.00056445381616        1.69890731162539       -0.82800277796837
H            5.57970236692555        1.91734704498045       -2.46447350875844
H            1.83207642965552        0.96690632152296       -1.28327003568385
H           -0.62295951256757        1.15882612616466       -1.50180846653799
H           -1.57379117948133       -2.50349177735599       -0.41928837599821
H           -2.98310983313354       -4.44590018903577       -0.88973705217108
H           -5.44539138280473       -4.20147948735516       -1.00493110960941
H           -6.45690918805298       -1.95450735198568       -0.67874144630606
H           -6.18154514474356        2.53404523492322        0.07465733689840
H           -4.91554275078740        4.60972786739026        0.59162318036119
H           -2.46195384667218        4.48111008947462        0.90658815798532
H           -1.30069446294394        2.34190639049751        0.66976245762019
H           -1.12907225837901       -1.41379886113667        1.87037751424083
H            1.33685998506143       -1.60575161278598        2.08077448570623
H            5.24422672472291       -2.06110448280798        2.50877670838605
