47
 energy: -78.807509519014 gnorm: 0.000020758573 xtb: 6.7.1 (edcfbbe)
C            7.59409545980996        0.43346115001096       -0.81792123016800
N            6.16014488314081        0.41629570655902       -0.75347342188526
C            5.26768082733209        1.01523111326763       -1.59305923848795
N            4.02408161022224        0.82135533983438       -1.27790669594266
C            4.05461256029702        0.03959804300917       -0.15024443699421
C            3.08752337735782       -0.52693254297254        0.69267878321653
C            1.64919362187508       -0.38059004251544        0.51512454892580
C            1.12654478549760        0.34320197011899       -0.55839756189504
C           -0.23837886454812        0.46966411068038       -0.71065493352694
C           -1.10691116617043       -0.12143096760553        0.20474955408189
N           -2.50177715033402        0.01047256227163        0.04662248197261
C           -3.30283712961286       -1.11478286991599       -0.16171508336535
C           -2.77171083684350       -2.39323675413592       -0.27962402042555
C           -3.59577619265041       -3.48848204520247       -0.48952095231618
C           -4.96169785577480       -3.32453755232286       -0.59712146644888
C           -5.50480309186656       -2.05078695771198       -0.51510869346371
C           -4.68753889982366       -0.95537950903781       -0.30799325029086
O           -5.29578291458308        0.27487535261607       -0.27270435366027
C           -4.49374527729385        1.37168675066665       -0.07684782971601
C           -5.11920494108652        2.60368321382451       -0.03516826969201
C           -4.38190341527513        3.75634683462572        0.19259458139570
C           -3.02037762125197        3.66222657354122        0.39648997299201
C           -2.38770819852509        2.42911574413343        0.35344704912340
C           -3.10642682195382        1.26881541707449        0.09346296689617
C           -0.58824683769588       -0.84387274325662        1.27836274438519
C            0.77499441709940       -0.97186323534585        1.43033771221459
N            3.51966196231586       -1.25117400839052        1.72952019035769
C            4.81163176112983       -1.41654335074524        1.93546928566261
N            5.81757826250882       -0.94140045339700        1.21955371391550
C            5.40640154253728       -0.21882978967756        0.18605528839335
H            7.94018509724843       -0.00422339681785       -1.75613506366202
H            7.96838799681930        1.45610946001676       -0.74228443238550
H            7.96931177417207       -0.15424257212549        0.01824492351070
H            5.58524322408511        1.59445162832236       -2.43896939504088
H            1.80081397549778        0.79458800913021       -1.26900990785203
H           -0.64536372387243        1.02157814405379       -1.54532572852776
H           -1.70430975238213       -2.53425180613193       -0.21515348876161
H           -3.15526909793751       -4.47025560685606       -0.57151577445754
H           -5.60760417230990       -4.17364931071389       -0.75566218071465
H           -6.56544336492135       -1.88424039963729       -0.61553675173366
H           -6.18746596358619        2.63857140328023       -0.17792048202465
H           -4.87819342521448        4.71356324004897        0.22034822588166
H           -2.43532142052592        4.54701166189335        0.59531608223458
H           -1.32569173222297        2.36867805296756        0.53189132115111
H           -1.26457769536187       -1.29341937898233        1.99072510678903
H            1.19257012372438       -1.52149864277073        2.25896523995681
H            5.08341030096021       -2.01495654567865        2.79501487037904
