83
 energy: -137.609105722678 gnorm: 0.000080540859 xtb: 6.7.1 (edcfbbe)
F           -0.29132791032468        4.99568763027019       -2.26888412686194
C            0.05595805152901        5.11403785754368       -0.97736578723148
F            1.40181579824916        4.98146879866073       -0.94438922911466
F           -0.19467693241786        6.38651529482356       -0.63261949184677
C           -0.62145140788561        4.11336859976397       -0.09013219372916
C           -0.93343237725343        4.45135321429713        1.22438721653624
C           -1.51998894894650        3.49207026166606        2.04199703087117
C           -1.77660557780158        2.22520632230836        1.56835141880218
C           -1.45427033032263        1.88320603155527        0.24498478364330
N           -1.67866417611786        0.60138587088924       -0.22926634434448
C           -0.73073242702692       -0.21882334321211       -0.90711601261237
C            0.63324356281335        0.01683141420926       -1.13130307765829
C            1.30309961283751       -0.86253491104093       -2.03189851613338
C            2.63562124492915       -0.74187135501622       -2.28126638660253
C            3.40224673489014        0.25569768722119       -1.64559123241708
O            4.72303726285891        0.26668900172555       -1.95716168174796
C            5.62924115357870        0.98793076946150       -1.14808093643377
C            5.71102663914888        0.41917073221097        0.27225169479275
C            6.05343484080420       -1.07241324836022        0.26479770573188
C            5.42831798119845       -1.80673581422827        1.45855917856627
N            3.99612347192719       -1.88660595187983        1.34979310938219
C            3.06998922752504       -1.09422869597876        1.98648025337467
C            3.25370161954563       -0.04934692971523        2.88325796872631
C            2.13192462145244        0.58863303330633        3.37614636833216
C            0.84826499146635        0.19639167925677        3.00466395416068
C            0.65512683964922       -0.84841195262825        2.12343515861765
C            1.76688787215518       -1.49455111361026        1.60160498986470
C            1.93124152660991       -2.57590904021798        0.67375170955879
C            1.04009615276171       -3.36564344671876       -0.03961384534411
C            1.54837823329698       -4.33797834918757       -0.87710510465310
C            2.92195980289573       -4.53053787307170       -1.00332281371349
C            3.82716729323638       -3.75903353935060       -0.30008954631348
C            3.32458122612391       -2.77685153779571        0.54186224011395
C            2.76429504756013        1.12845070500507       -0.75692172629762
C            1.42378261244788        1.00851620305881       -0.49326988233481
N           -1.29129736997953       -1.40412075383636       -1.23589783557459
C           -2.51021349561912       -1.41207614681504       -0.74424116721640
C           -3.44085394994305       -2.49260403203916       -0.74430349632490
C           -3.07977329599915       -3.74329185611279       -1.24762096478120
C           -3.96508382662076       -4.80026901344887       -1.18692961009660
C           -5.21072606536678       -4.60643816174507       -0.60981694420631
C           -5.58006210203593       -3.36578003424925       -0.11855718698558
C           -4.71769914161901       -2.26797393396659       -0.18183853950027
C           -5.09517444064949       -0.93314725884910        0.26955661798548
C           -6.39492833511647       -0.64714639757650        0.67219796424360
C           -6.79139804171050        0.62421897328347        1.05064614409365
C           -5.88017450223810        1.67832945209731        1.00171191638513
C           -4.58653176451564        1.44680507817565        0.62015724643286
C           -4.13994618030777        0.14500825291349        0.27297284830340
C           -2.83343675424853       -0.14864038265582       -0.12751250425829
C           -0.87493453934650        2.84905663159347       -0.58789951555019
H           -0.72505211563430        5.44169783724068        1.59459816532972
H           -1.76321127129329        3.74192048467773        3.06326724053593
H           -2.21808722621641        1.47709380705179        2.20953300882476
H            0.71693101336233       -1.62861855362016       -2.51105139904374
H            3.13888705651415       -1.40996592050411       -2.96231773429409
H            6.59028214462215        0.87888622652353       -1.65792479336813
H            5.36803608056876        2.05288686482800       -1.11924035087635
H            4.74212448724138        0.55443176418069        0.75305168809653
H            6.45296754503802        0.98700390445895        0.83526847337142
H            7.13484421279963       -1.21592684473746        0.27793119576849
H            5.66375305752079       -1.51939525993961       -0.65184355142167
H            5.68185058310576       -1.29532451052289        2.39007453640083
H            5.82834211084406       -2.82482528013886        1.51051352109056
H            4.23904680134948        0.26516391154526        3.19549390527315
H            2.25322552436960        1.40820609155595        4.06924973224665
H           -0.00052256399900        0.71960297486189        3.41897128422313
H           -0.33799023663678       -1.16493111679567        1.84172246052940
H           -0.02319582668628       -3.20904127815481        0.04890801018713
H            0.87517705542142       -4.96205794659755       -1.44556703818397
H            3.28921182408785       -5.30020816027325       -1.66657131069613
H            4.88878678934146       -3.92374570456460       -0.40860138199085
H            3.31318741276886        1.91299049131513       -0.25983940993909
H            0.99485858506687        1.64889027253224        0.25740543213034
H           -2.09454578931783       -3.85285747094037       -1.67339736170597
H           -3.68904544034870       -5.76881852283080       -1.57561004510765
H           -5.90680994032342       -5.42987655684999       -0.54208839278673
H           -6.55843660008216       -3.26855792532783        0.32412049479793
H           -7.13872662899505       -1.42774895931199        0.68026523026555
H           -7.81043928620328        0.80115489726114        1.35875340649680
H           -6.19740782689339        2.67907529544676        1.25488039698413
H           -3.90042809535767        2.27405866593407        0.54602967654145
H           -0.63369759141187        2.60271206497392       -1.61038057961911
