83
 energy: -137.609036279494 gnorm: 0.000078749532 xtb: 6.7.1 (edcfbbe)
F           -0.70950730588600        4.95134013285256       -2.28279994782407
C           -0.39132059085470        5.13722680853543       -0.99203788359062
F            0.96038310093649        5.15194223283862       -0.94386866788708
F           -0.78156552584330        6.38339299200827       -0.68127638996319
C           -0.96717660201017        4.09186132728950       -0.08477403075808
C           -1.29290158488098        4.42033092127673        1.22896925529218
C           -1.78147941772203        3.42473061966123        2.06744639489795
C           -1.93133112744883        2.13323325359105        1.61459726943645
C           -1.59867297576246        1.80245569905164        0.29104850325846
N           -1.70682855195269        0.50018664783483       -0.16708686401962
C           -0.69437688532304       -0.21157202406414       -0.87252487977592
C            0.64193374871399        0.15966242185695       -1.08151804438162
C            1.39285942241487       -0.60335366630625       -2.02171673804457
C            2.70984378285886       -0.34599723128758       -2.25192847758993
C            3.37817246088212        0.67887396651558       -1.55272352632547
O            4.69523834361624        0.82735210056884       -1.84497410637813
C            5.52616191788590        1.56397273587272       -0.97126943438652
C            5.63827005096007        0.90173184780867        0.40578393732869
C            6.12760608707033       -0.54423054062311        0.29684460030676
C            5.55524021895769       -1.42704812592869        1.41398525095850
N            4.14310775195780       -1.64932969137280        1.25334647653658
C            3.12094128196095       -1.01615045358783        1.92082335593561
C            3.16686918944084       -0.02965042274362        2.89776093070553
C            1.97023298470668        0.43681630182433        3.40673752277262
C            0.74724174193890       -0.06998974479448        2.97416232040252
C            0.69135768066211       -1.05847559740533        2.01231041847686
C            1.87945353520134       -1.52886482316285        1.47138346314894
C            2.18316506145155       -2.50818852955671        0.46873579834496
C            1.39962630661943       -3.32948305655010       -0.32990424408185
C            2.02998164615165       -4.17097600343162       -1.22433655741213
C            3.41903214588885       -4.20325338068448       -1.32289800645803
C            4.21840269699338       -3.39594523440082       -0.53639161884643
C            3.59248914062849       -2.54350830023471        0.36248972011176
C            2.65827023157607        1.43923367125403       -0.62407304314882
C            1.33237593420443        1.18507246458014       -0.38388290396735
N           -1.14349401810551       -1.43523725976264       -1.22757938952970
C           -2.34881811098700       -1.57120502943041       -0.71958121596856
C           -3.17040101937382       -2.73665982857132       -0.73155585739079
C           -2.70243432238136       -3.93312632548893       -1.27732353166739
C           -3.47771256660199       -5.07362379113849       -1.22392219390096
C           -4.72061505936325       -5.01809107368242       -0.61221276240234
C           -5.19757572664960       -3.83170406330990       -0.08107186110741
C           -4.44937350579451       -2.65276417474294       -0.13589099864336
C           -4.94641025272032       -1.37243246514020        0.35555540833743
C           -6.25843582142219       -1.22596389560191        0.79187493311650
C           -6.77055056886313       -0.00850514109444        1.20713206363872
C           -5.97019855882984        1.13219849801917        1.16195196119786
C           -4.66904321873805        1.03864937934977        0.74840158868698
C           -4.10290498791875       -0.20487568407304        0.36407371114102
C           -2.78228406725257       -0.35903126590404       -0.06687573206789
C           -1.11386289303088        2.80329585093200       -0.56158699915668
H           -1.16865973839610        5.43060719947254        1.58282083306512
H           -2.03203175921312        3.66668342009811        3.08881629974047
H           -2.29327318698966        1.35823183497839        2.27326066891660
H            0.88235006109014       -1.39275933849806       -2.54747424135226
H            3.27570470429155       -0.92594387273436       -2.96390534145667
H            6.49929261826550        1.57447637603207       -1.46949487982206
H            5.17381590097061        2.59794095511708       -0.87209787148368
H            4.65158823635976        0.90503033360481        0.86957500630597
H            6.30961182224774        1.49502276472411        1.02802959890142
H            7.21747090603967       -0.58135078352136        0.32935630950776
H            5.80325946507123       -0.95497222653956       -0.66125340908525
H            5.72951116719360       -0.96309670477884        2.38759362278145
H            6.06076476184885       -2.39851477492605        1.40560041595194
H            4.10359393464039        0.36901129623697        3.25965987552193
H            1.98391060120176        1.20862293781619        4.16238693866893
H           -0.16351728454197        0.31651129251539        3.40678165395746
H           -0.25293568481121       -1.46642458371552        1.68457601423869
H            0.32413446060118       -3.29180052781689       -0.26052646305839
H            1.44278167792238       -4.81648046622544       -1.86039590470929
H            3.88318916525629       -4.87356329217437       -2.03174756603283
H            5.29375478166304       -3.43515152125296       -0.62611088685932
H            3.13168063186052        2.23995099536852       -0.07758373431039
H            0.84090380065957        1.73972186504943        0.39648045626806
H           -1.72359842391098       -3.93542479610938       -1.73101920937137
H           -3.11790864172707       -6.00030383854545       -1.64478475071867
H           -5.33010854404857       -5.90785741463370       -0.54914145248959
H           -6.16924922492341       -3.84202454934224        0.38620902341984
H           -6.92060920394495       -2.07691143218371        0.79809694754889
H           -7.79464243707447        0.05937644165380        1.54073758967547
H           -6.37957022010861        2.09108879340338        1.44335746484092
H           -4.07075801534207        1.93170824732817        0.67753108950667
H           -0.86269006043034        2.56370953071039       -1.58319611028852
