83
 energy: -137.683927962352 gnorm: 0.000040208585 xtb: 6.7.1 (edcfbbe)
F           -3.79943832532221       -2.61489763349173        4.21325259107419
C           -4.50426346416086       -3.36186620866915        3.34895853535722
F           -4.39151530813641       -4.63217658273992        3.76180568395308
F           -5.79595755315123       -3.02137287876081        3.52526123544511
C           -4.06527373766569       -3.16539532551537        1.92511076103777
C           -4.06131088162757       -4.23527402199078        1.03941536343287
C           -3.68084904687780       -4.02388775594357       -0.27497006556136
C           -3.31881161319351       -2.76091793716871       -0.70557982099158
C           -3.33094389411290       -1.69050167817495        0.18496198855226
N           -2.92865503012299       -0.42069868121990       -0.24673446869338
C           -1.69657368317926       -0.14204500812255       -0.80670634539467
C           -0.64032511971014       -1.11961222368301       -1.01541744217191
C            0.11649429335932       -1.04854871796497       -2.18618231509969
C            1.17222397211414       -1.90664991531215       -2.38978240858386
C            1.51788878520631       -2.85167337888300       -1.42025239455561
O            2.57804069900253       -3.65123295116211       -1.71102060324673
C            3.41183021357196       -4.13214962316803       -0.67155083198935
C            4.83578283784303       -3.60524619092000       -0.87825104650614
C            4.90825509409282       -2.07865575926605       -0.89974150042901
C            4.58858025332312       -1.42765824397184        0.45237936369491
N            4.77110246519462       -0.00394158724176        0.39842343768922
C            5.97326952307098        0.65001965512510        0.53092971123106
C            7.22897972524120        0.14356873728273        0.83615836374412
C            8.28191739955126        1.03373552824161        0.92657323053893
C            8.10001285480619        2.39881197352422        0.71761320761514
C            6.85464599044920        2.90998262859648        0.41104169121257
C            5.78046853156424        2.03583731215983        0.31447143083977
C            4.38720726689374        2.20830775458347        0.01557172286166
C            3.60228519725933        3.31327656845973       -0.28793699796313
C            2.25819197833877        3.12190564797438       -0.53849110363115
C            1.69037125568593        1.85033742318977       -0.48813803619074
C            2.45233243555652        0.73834461826263       -0.18357979354063
C            3.80473356872035        0.91987271187416        0.06721714180954
C            0.75388942448089       -2.93589957229700       -0.25867467602801
C           -0.31017203848998       -2.07603701987422       -0.06026946230655
N           -1.56143150230001        1.12569744613326       -1.08655094729172
C           -2.72055139105528        1.72563398571018       -0.70249771322710
C           -3.03659713268939        3.11126271805054       -0.74956742934539
C           -2.11450422189986        4.04909793745064       -1.22588888585693
C           -2.42362120946168        5.38605569082744       -1.22022502073651
C           -3.66180152484871        5.80017957916475       -0.73269774124303
C           -4.57795400908203        4.88539674145920       -0.26874018961961
C           -4.30386723654090        3.50896255224887       -0.26656701454572
C           -5.26154711670008        2.51258180564862        0.18101846206301
C           -6.55854989304857        2.86805033375305        0.57802077525319
C           -7.48928900041449        1.93011496885289        0.95686644978132
C           -7.16709528075496        0.57699819410156        0.93160500771249
C           -5.90559730591473        0.18684964286584        0.55603867106835
C           -4.92881546909423        1.12949067832566        0.20376840410902
C           -3.60351918856131        0.78324968771123       -0.18345707745103
C           -3.70012891204812       -1.89374286130250        1.51172438104325
H           -4.34809033961841       -5.21780362131292        1.37936454745201
H           -3.67299760464932       -4.84927981454998       -0.96918003277681
H           -3.02553421188871       -2.59271598562584       -1.73060398893740
H           -0.12894915860319       -0.29806457566512       -2.92054530553701
H            1.76275276082784       -1.85725053946548       -3.29099366971583
H            3.04287760212967       -3.82653728465157        0.31016613021457
H            3.41246155332352       -5.22758676411682       -0.71738611984780
H            5.20478621856032       -3.98402080475954       -1.83241303973913
H            5.46907897539033       -4.00297545511526       -0.08290286144519
H            4.21537993582735       -1.69320161596371       -1.65013631751070
H            5.91599459316121       -1.77755065261302       -1.19399018417888
H            5.24394737822070       -1.83812529038583        1.22772643725295
H            3.55286349229679       -1.62419769272221        0.74013814432720
H            7.38866247013164       -0.91222166817549        0.99876578961670
H            9.26866941505767        0.66264159541058        1.16284173345898
H            8.94877746951567        3.06193040048282        0.79673267606849
H            6.71430899706839        3.96811468726716        0.24826256285278
H            4.04073703405193        4.29947538463131       -0.32677323259120
H            1.63188993788675        3.96911843503171       -0.77631477889432
H            0.63720973415406        1.72601039601303       -0.69373859719621
H            1.99599775253527       -0.23889331841534       -0.14859199517548
H            0.97686055767176       -3.67184565120446        0.49958537488911
H           -0.86526167439813       -2.13858072960996        0.86418738883525
H           -1.16368492620615        3.68678032668993       -1.58457754636075
H           -1.71523653464222        6.11558922513479       -1.58373562239822
H           -3.90585661294051        6.85258921316758       -0.71839310394720
H           -5.52089962471610        5.25409467421140        0.10241273717328
H           -6.85181261619092        3.90524840377434        0.58128744970541
H           -8.47772158584292        2.24296433688147        1.25877261530567
H           -7.90408652629987       -0.16418590004419        1.20179770027457
H           -5.67220234117677       -0.86535835793451        0.51201016384282
H           -3.70047279525892       -1.06770312077267        2.20751066602893
