89
 energy: -135.106780742112 gnorm: 0.000064605174 xtb: 6.7.1 (edcfbbe)
C           -5.87527443257083       -3.01215445529698       -0.77378906107655
C           -5.12095329055261       -2.50309540772852        0.46912671692008
C           -6.09325033139409       -2.34838254537363        1.65410666100632
C           -4.06198508887312       -3.52435657172971        0.84187940955002
C           -4.44075053662665       -4.82119172888857        1.16169969836932
C           -3.51904608646315       -5.79184530660766        1.51048540335496
C           -2.17456932094106       -5.46729240838228        1.54877864054848
C           -1.76974370954542       -4.18654948044558        1.23637112424714
C           -2.70010800020530       -3.20691509583680        0.87635264792741
N           -2.26162101995825       -1.92930211513384        0.57452634045201
C           -0.86605429871845       -1.65507070608553        0.54080473472110
C           -0.12433304094836       -1.96361969385888       -0.59445533748202
C            1.21609054346312       -1.63891513495029       -0.65160427761893
C            1.83361590240702       -0.98739704480649        0.41464962047678
C            3.25263252739700       -0.62037672804888        0.31086173275956
C            3.77964109642439        0.50017815639826        0.95077431101328
C            5.14414459520088        0.74388061000341        0.78881851350557
C            5.82630211765292        1.88261423710697        1.41745125490704
C            6.98400492798689        2.39262513567479        0.83080476333513
C            7.64566486206084        3.46336300106177        1.40051637757071
C            7.16539951074240        4.03532601278542        2.56819627627029
C            6.02242240546359        3.52781651597639        3.16478607127887
C            5.35403512058089        2.45981532722208        2.59482517263579
N            5.89261611888185       -0.05569647801110        0.03059215298822
C            5.30513267641620       -1.08893609465830       -0.56315834372256
C            6.13827226408926       -1.95004925951594       -1.40833958647977
C            7.50751244734393       -1.71395468596517       -1.52052408086121
C            8.28898720403811       -2.52574571514521       -2.32042027995828
C            7.71499771093395       -3.57978771163051       -3.01454834713503
C            6.35423375674120       -3.82176838026761       -2.90515910085696
C            5.56817582135072       -3.01386028494084       -2.10596265749987
N            4.01818573979328       -1.40191989050515       -0.44774164189704
C            1.09064265046865       -0.70418478138524        1.55890825996140
C           -0.24776190322748       -1.04013532663605        1.62396954926013
C           -3.13432854347994       -0.91014082673728        0.22418621883448
C           -2.60606119313238        0.34795703167822       -0.06558167276725
C           -3.46223275686535        1.36540191122122       -0.43420626044477
C           -4.85414533934193        1.15452837341183       -0.49861787279869
C           -5.36212651374050       -0.10247738757866       -0.20235269658357
C           -4.52118127988044       -1.14323991215283        0.15429545545189
C           -5.43979524404551        2.41218953284487       -0.86798354331249
C           -6.74252102295579        2.82943853602358       -1.10693321476013
C           -6.96270664657733        4.14309763663867       -1.47395174607629
C           -5.90182354188640        5.03366943208795       -1.61780998275326
C           -4.59543490056905        4.64202101619997       -1.38668764282895
C           -4.36946992012238        3.33087664602828       -0.99667643367851
N           -3.17638997019369        2.68269696000262       -0.73526743898267
C           -1.89493958069616        3.25140499378020       -0.70632275518245
C           -0.84059667557700        2.62879882088341       -1.37085597197897
C            0.43440736973141        3.15906513027873       -1.29813065791794
C            0.66747273729403        4.32320043828100       -0.58414472913355
C           -0.38342721543005        4.95630630053235        0.05961394493244
C           -1.65832423383337        4.42253797899825        0.00869553118689
H           -5.18023410074076       -3.14293529170385       -1.60158541035197
H           -6.64217510960744       -2.30556694869690       -1.07868635825651
H           -6.35278161514000       -3.96728691884594       -0.57321529764844
H           -6.54786105988543       -3.30129261359983        1.91050421347503
H           -5.55810008266497       -1.97722196948956        2.52667481897873
H           -6.88710152033036       -1.64629437317638        1.41496022169281
H           -5.48612016547776       -5.08985769987701        1.13905127863633
H           -3.84962513314831       -6.79092291022452        1.75229952948555
H           -1.43843140159238       -6.20885819480973        1.82300713457395
H           -0.72039175158182       -3.93468120960771        1.27147535835273
H           -0.60868256707792       -2.45025750264667       -1.42815227140337
H            1.80141884511186       -1.86713296780574       -1.52875913935052
H            3.14965486780765        1.16941743273647        1.51199473823944
H            7.34524636724918        1.93725585394861       -0.07850612299170
H            8.53889216208690        3.85291011344327        0.93455748028579
H            7.68329911901360        4.87082654132465        3.01565373364492
H            5.65137278512432        3.96393791719615        4.08085483849546
H            4.47697169479590        2.05998277326271        3.08192284505181
H            7.94021072861678       -0.89294651680717       -0.97023709828190
H            9.34973906385692       -2.33880144794161       -2.40300896651328
H            8.32790116164272       -4.21272618710848       -3.63961033231824
H            5.90642101099953       -4.64390166394340       -3.44424831537898
H            4.50871681944044       -3.19172605464181       -2.00654257571711
H            1.56174571971412       -0.23572542400606        2.40986706961255
H           -0.82677452465829       -0.81758455261275        2.50809281520536
H           -1.54657459206789        0.52674637775400        0.00739660460597
H           -6.42868745687246       -0.25653419734921       -0.25184757166827
H           -7.56536871044933        2.13648341373690       -1.01037177493712
H           -7.96988751201544        4.48625029331699       -1.66156961379487
H           -6.10243710775523        6.05152573574756       -1.91984031748236
H           -3.77834863393003        5.33568680283749       -1.51810568940626
H           -1.02777821249237        1.73721822356120       -1.95035931604672
H            1.24811531253244        2.66342077648032       -1.80809580283461
H            1.66403331068484        4.73582148916869       -0.53097922469251
H           -0.20755010430720        5.86510473994370        0.61635867028972
H           -2.47246007499941        4.89922358364225        0.53419859875813
