89
 energy: -135.106812968398 gnorm: 0.000055638324 xtb: 6.7.1 (edcfbbe)
C           -6.19665151083210       -2.65429004608341       -1.14055093506545
C           -5.41449217890812       -2.31977342367604        0.14377783107494
C           -6.37998667733564       -2.20649540967989        1.33910873412037
C           -4.43438271831458       -3.44305252908467        0.42673578429239
C           -4.90980013340047       -4.73255282307135        0.62541356734908
C           -4.06795063905526       -5.79142549918275        0.91258289360346
C           -2.70732791249778       -5.56391737334658        1.01942241628064
C           -2.20770413360200       -4.29295466540863        0.82795887901667
C           -3.05547525457479       -3.22517366724912        0.51734994419676
N           -2.52208713305847       -1.96007171692762        0.33051982989893
C           -1.11635898618636       -1.76850333441439        0.39789279966144
C           -0.29749925635994       -2.18520365049733       -0.64673353290106
C            1.05687470533565       -1.91857978169608       -0.61094247374135
C            1.61099895506629       -1.21115166204087        0.45380212723964
C            3.03659652283700       -0.85673367718599        0.42735134655626
C            3.49130435973180        0.36414981661166        0.92276971461330
C            4.85419050685403        0.63406408359229        0.79896042882083
C            5.44971019632687        1.90638680536268        1.22811854346659
C            6.61874847206027        2.35270421523825        0.61282813744598
C            7.19206957146977        3.55387825771285        0.98354684468973
C            6.61116385687428        4.32243392897230        1.98007347122959
C            5.45657544285629        3.88091067815548        2.60612524110670
C            4.87601195133000        2.68241467379069        2.23368165339641
N            5.67599931599769       -0.25882210183642        0.24897043099490
C            5.16124118185648       -1.40519566067424       -0.18215953862353
C            6.08287093799712       -2.38642896061780       -0.76323675305832
C            7.44525280863630       -2.10514931072927       -0.85312149803866
C            8.31281716355181       -3.03590371526534       -1.39209346192428
C            7.83239451073143       -4.25520078634786       -1.84467058975611
C            6.47877440697963       -4.54190944402154       -1.75679083026984
C            5.60648952368211       -3.61474929583104       -1.21919851576612
N            3.87246087440450       -1.73052070810500       -0.12732766495184
C            0.79265100387650       -0.82757219177480        1.51406108135533
C           -0.55780751495616       -1.11367369152799        1.49165255692039
C           -3.31643985976344       -0.85873034258226        0.03965115209467
C           -2.69826339463311        0.37217674202746       -0.18308192788503
C           -3.47781589101764        1.47297688833924       -0.47344790606372
C           -4.88200110644295        1.37224817759007       -0.53555074202972
C           -5.47894677856476        0.13698873972568       -0.32912578095550
C           -4.71602370700468       -0.98491885529335       -0.05017494362837
C           -5.37332753842667        2.69266107890921       -0.81173312713897
C           -6.64205499032679        3.22269154819328       -1.00580997895417
C           -6.76386170200038        4.57123079112984       -1.28060903975669
C           -5.63921663671540        5.38698252980494       -1.37635290879541
C           -4.36500632448684        4.88285483903087       -1.18809040860682
C           -4.23721719708037        3.53466755711245       -0.89082518787618
N           -3.09500594729625        2.78240295121694       -0.68821854472749
C           -1.77509852548165        3.25382632949516       -0.63588880422886
C           -0.77570168671211        2.61389484513872       -1.36527539936712
C            0.53321641918253        3.05156193921831       -1.27860702401424
C            0.85660103289070        4.13644210563001       -0.47988158745807
C           -0.13863192360700        4.78543103837282        0.23286122858966
C           -1.44813751361209        4.34563421936227        0.16398409917053
H           -5.51268685209070       -2.71655024167612       -1.98536394307402
H           -6.93579989440058       -1.88754470292393       -1.35482521669503
H           -6.71225555614281       -3.60578816654834       -1.04535752563922
H           -6.92411240882888       -3.13513283640317        1.48753472362526
H           -5.82103663656655       -1.98737778690503        2.24745725172988
H           -7.10180176968965       -1.41011619422602        1.18052023600560
H           -5.97025548644812       -4.92316127162958        0.55769627255093
H           -4.47256537702796       -6.78175791540796        1.05887367449107
H           -2.03241286784175       -6.37356490041802        1.25598271688160
H           -1.14685363055048       -4.11919544022970        0.92520127183588
H           -0.73234191557045       -2.70617736108871       -1.48694932438305
H            1.69991735402313       -2.22761037667474       -1.42066518384680
H            2.80503693165765        1.08654892655408        1.33114397885545
H            7.05835309774471        1.74403307079132       -0.16239333435041
H            8.09415487560980        3.89244723172353        0.49535276973241
H            7.05891419934875        5.26108688075890        2.27147818839818
H            5.00673873247609        4.47236838002290        3.39027360678222
H            3.98737407541846        2.34087968154933        2.74351376910515
H            7.80424221818603       -1.15453639564026       -0.49054098368779
H            9.36772406423918       -2.81272011742120       -1.45845680356543
H            8.51243681597657       -4.98202729465634       -2.26446013354024
H            6.10412270962740       -5.49249861895340       -2.10756304458730
H            4.55113093124152       -3.82452671132492       -1.13919550602375
H            1.21532207711255       -0.31751468698533        2.36681194038116
H           -1.19503884802746       -0.81151328052665        2.30965292132710
H           -1.62772308826445        0.46923350534650       -0.12107632964325
H           -6.55355837011266        0.06343937215780       -0.38742878277576
H           -7.51487405705950        2.58928323813963       -0.94641952465668
H           -7.74313835750484        5.00163185900784       -1.43255762962132
H           -5.76400736682569        6.43535209130037       -1.60616570550594
H           -3.49807822001040        5.51993749571351       -1.28137764309093
H           -1.03175635690784        1.78293731853351       -2.00555520549270
H            1.30345671920266        2.54557501837238       -1.84287087476771
H            1.88038524557292        4.47430574940014       -0.41411717231150
H            0.10749549803520        5.63271163525830        0.85604125755670
H           -2.22077626333257        4.83391768640747        0.73913525423361
