89
 energy: -135.032703918817 gnorm: 0.000074024331 xtb: 6.7.1 (edcfbbe)
C           -6.27396078652765       -2.08391164137041       -1.70144487287807
C           -5.41473493031744       -2.28391019771765       -0.43707838779245
C           -6.30590923171689       -2.69787968064073        0.75083979664489
C           -4.41974921692846       -3.39270441974214       -0.70357094794424
C           -4.87366914006103       -4.66418370961556       -1.02776338170318
C           -4.00415994260057       -5.70454246722609       -1.30034314275548
C           -2.63573105769800       -5.48105580514956       -1.26238879532362
C           -2.15570527288548       -4.23153955438312       -0.94188086450406
C           -3.03392726034555       -3.17837700933907       -0.64753771786914
N           -2.52074976460673       -1.94222580066078       -0.31658836203521
C           -1.10759408334033       -1.75625718353151       -0.29230484211478
C           -0.46382789465204       -1.14514200264407       -1.37219586562161
C            0.88507107183238       -0.91047739451131       -1.32539655681925
C            1.66128691215015       -1.27374156202273       -0.20009626768900
C            3.06041774687516       -0.97833468191024       -0.19505526800951
C            3.96204496644120       -1.39745159656864        0.79636133309565
C            5.29628610580910       -1.04784023394517        0.68318030863875
C            6.31932024806617       -1.42335162605200        1.63958276447993
C            7.59221269038563       -0.83867029416262        1.54335884127063
C            8.59411083139399       -1.16355347486822        2.43130482371169
C            8.36264718064093       -2.08425146929828        3.44384079127692
C            7.11191031487698       -2.67594596593784        3.55020573699871
C            6.10405062778102       -2.35500084567115        2.66503320146394
N            5.69945373845160       -0.28915454085961       -0.38180947609777
C            4.81725040859562        0.08682002958007       -1.29068455772989
C            5.28520840474750        0.90115254360213       -2.41814464089592
C            6.64780750302958        1.10627010858276       -2.61979458511424
C            7.08754232009373        1.87401920658501       -3.68164662944514
C            6.17282260769767        2.44632936845557       -4.55183462456377
C            4.81482745217497        2.24631837783057       -4.35753634715063
C            4.37222488868302        1.47807536220131       -3.29765448230101
N            3.54601937365753       -0.23215663645766       -1.23595665160982
C            0.99173390109246       -1.90729621469816        0.86893137010043
C           -0.36150938280837       -2.13894715920787        0.82326263598853
C           -3.32466767085150       -0.86169279448999       -0.03788899633035
C           -2.71411909262557        0.34999292943024        0.31340621192818
C           -3.50660880972753        1.45054954095121        0.55113139000032
C           -4.91922871116677        1.35752173575578        0.48811052143126
C           -5.50940734130296        0.14059733886389        0.16916277577838
C           -4.73496975687404       -0.97212883313281       -0.09942725993657
C           -5.42595740923679        2.65343308983360        0.81893398024060
C           -6.70779053329017        3.18843124192624        0.90491628001964
C           -6.84688166983708        4.52110788160944        1.23276210350562
C           -5.72923058236494        5.32387142506930        1.46220930070730
C           -4.44529382445866        4.81679159787607        1.38404108287152
C           -4.29676048132844        3.47278929973474        1.07470698536707
N           -3.14478363886764        2.72994312755635        0.90981326128423
C           -1.82396309668358        3.18060393122289        1.08177754353776
C           -0.87493800456201        2.94705211772314        0.09072576489348
C            0.43189872071547        3.36063974695772        0.27423900803884
C            0.79660686021221        4.02443601106590        1.43423531934489
C           -0.15065337404211        4.27090989507089        2.41464393794646
C           -1.45629860291466        3.84555272048740        2.24723886239016
H           -7.02099607065913       -1.31242912743986       -1.54099373509718
H           -6.78501001690140       -3.00341320254580       -1.97068579897720
H           -5.64234420477375       -1.78382699176875       -2.53558536965122
H           -6.83745191888964       -3.61906816179346        0.53170380746945
H           -5.69378821417606       -2.85558905556641        1.63700003663276
H           -7.03717129809903       -1.92618055319085        0.97137776496856
H           -5.93455195950959       -4.85456901631079       -1.07255572670061
H           -4.39077536342869       -6.68149420225217       -1.54725082713782
H           -1.94425830067353       -6.28000744524227       -1.48379913093221
H           -1.09221505807907       -4.05242027420577       -0.91762854344310
H           -1.04320413967429       -0.85993976009026       -2.23898042887665
H            1.39137138484989       -0.44058327678541       -2.15429655453772
H            3.61637086344107       -1.98210942636080        1.63229428884218
H            7.76451265095064       -0.11967160148799        0.75660432340563
H            9.56533309655026       -0.69770688931094        2.33771535722395
H            9.14775456935838       -2.34057249039661        4.13984863659310
H            6.92424991552812       -3.39889034199845        4.33217873465094
H            5.14617279786433       -2.84343334866263        2.76515813476302
H            7.34707690360839        0.65072680523296       -1.93484220971331
H            8.14637789102313        2.02725508098154       -3.83270969159196
H            6.51800524415688        3.04731437948969       -5.38044020777173
H            4.10087956564722        2.69230779800707       -5.03491719843983
H            3.31823016164324        1.31426926091341       -3.13128894477211
H            1.53763727643911       -2.20240613012767        1.75158047323798
H           -0.86290882763005       -2.61112174607376        1.65641000707222
H           -1.64254210176067        0.41180499972532        0.40211652415551
H           -6.58507359883845        0.07882951549943        0.13610259061838
H           -7.57206952267832        2.57092264214499        0.71288988795617
H           -7.83229803603552        4.95675618943675        1.30607214492629
H           -5.87017568355584        6.36727492798961        1.70327620676896
H           -3.58712167509028        5.45050060618396        1.54797585279723
H           -1.16645535314551        2.45060617654355       -0.82240981767327
H            1.16728860320111        3.16712353895401       -0.49282017687496
H            1.81768100646710        4.34691052830753        1.57328098359969
H            0.13074345071249        4.78700737761415        3.32074541611011
H           -2.19010736099737        4.01303344902257        3.02153039938745
