166
 energy: -249.394219324228 gnorm: 0.000103048190 xtb: 6.7.1 (edcfbbe)
N           12.11384888072736       -1.20278685303223        2.30585095032643
C           11.20259459534829       -0.99575468318430        1.61761062986567
C           10.09970514186182       -0.73993303788060        0.82178188549061
C            8.82775613564548       -0.62351621026939        1.38992846708505
C            7.70386018814206       -0.38959688168289        0.63046431072270
N            6.44750700070657       -0.29499974754307        1.24398172857179
C            6.12955555551931        0.59205463095207        2.25730437608190
C            6.94206431575458        1.49947628046788        2.92253150080091
C            6.35936493101377        2.30470230176823        3.88482882349868
C            5.00086580526009        2.21569302893738        4.17886935473198
C            4.18319919138287        1.32417919328599        3.50742545561954
C            4.74494775867556        0.50928080804510        2.53586782620290
C            4.21255879063985       -0.49459527270931        1.65518130940260
C            2.95109131879360       -1.03347094849337        1.48501595959284
C            2.76397988374452       -2.05737659144864        0.55735130768088
C            1.44681553851515       -2.67870351289653        0.38990503589913
C            0.97422302938999       -3.07322903404360       -0.86184920813674
C           -0.24268230832054       -3.71209248789939       -0.99212711194806
C           -1.03178299245572       -4.01707345870303        0.11668107322323
C           -2.34540381681728       -4.76646187314395       -0.06443952023842
C           -3.36517489482738       -3.76198962989238       -0.58668004778935
C           -4.19973159017953       -3.99986339685806       -1.67332719343149
C           -5.17523509620976       -3.09095972999447       -2.04553624947225
C           -5.33797292850785       -1.90870227398037       -1.33254010814676
N           -6.34885354255510       -0.99345178685036       -1.65518711785732
C           -6.19059852397489        0.37204478484271       -1.76966913792825
C           -5.03196377140641        1.13556515039702       -1.72144741118403
C           -5.15104724309533        2.50319289906571       -1.88227677002942
C           -6.38738873194761        3.10217908754757       -2.10920103129111
C           -7.54117323043349        2.34323137598849       -2.19569453126529
C           -7.44699631820193        0.97027014180667       -2.02515339838172
C           -8.40823557829489       -0.09936854824190       -2.05321621584468
C           -9.78178727220210       -0.14273749717419       -2.23972906564264
C          -10.42085225744677       -1.36783789975004       -2.17305730394325
C           -9.70737287469689       -2.53433748502961       -1.90890809724184
C           -8.33730762889152       -2.51589772588514       -1.72309173476331
C           -7.68679199730415       -1.29283674645600       -1.81558517304318
C           -4.48046258003749       -1.64278404257257       -0.26923826822499
C           -3.51467954576742       -2.55493539652064        0.09464477452568
C           -2.15971462481502       -5.97175308411667       -1.00422686934616
C           -1.19799925596506       -6.99429106236865       -0.40450807753644
C           -1.77240147073524       -7.54630821106960        0.89563215824522
C           -2.01974537089674       -6.40429911595758        1.87503002212715
C           -2.91616087263708       -5.33302154994104        1.25544424618391
C           -0.58351991236008       -3.56814029166550        1.35662651689300
C            0.62565649390827       -2.91487055711859        1.49151353766792
C            3.86451682320751       -2.53471695221451       -0.17434808395285
C            5.13104076521121       -2.01648399712787       -0.01406340165995
C            5.30362738421717       -0.96854084192525        0.88402600815707
C            7.83771609021452       -0.24359012870077       -0.80303058562935
N            6.71122077427255        0.01585456065640       -1.59289165667592
C            6.28124915531026       -0.76662987942117       -2.65048529717942
C            6.89294070270946       -1.86122977110536       -3.24493828539711
C            6.22351717401762       -2.49369852568986       -4.27754991931207
C            4.97312660332656       -2.05562356195076       -4.70689430952512
C            4.35034129030401       -0.97637446076452       -4.10530854529458
C            5.00195380237253       -0.32755101785058       -3.06720291420383
C            4.65695697595469        0.78224394683995       -2.22056146429582
C            3.54292912730079        1.59344961112531       -2.12025807267649
C            3.51844563914099        2.60318440830630       -1.15862569346707
C            2.29598547423995        3.38593771326780       -0.96611680812106
C            1.84554131661713        3.69730541759891        0.31823308468732
C            0.62604508173798        4.31103118290327        0.50563672783087
C           -0.19267097871165        4.65427915546702       -0.57260600254127
C           -1.57874754777585        5.20030709800285       -0.26326548804564
C           -2.36109571679678        4.08245026204848        0.41648197327829
C           -2.04570627351179        2.74947353037154        0.16273091041281
C           -2.75378678555942        1.71852521934863        0.74581127602536
C           -3.82885639577324        1.99607505882034        1.58345777503912
N           -4.56594721114895        0.94339783412547        2.14924284044408
C           -4.03786834286319       -0.13934276962773        2.82219166944160
C           -2.72692440463720       -0.38232687735478        3.21025898684266
C           -2.46568609591947       -1.55475594891840        3.89458749369736
C           -3.47789659817276       -2.46592388630038        4.18934540888647
C           -4.78774265408525       -2.22091094495801        3.81927726057841
C           -5.07598618486625       -1.04903821405442        3.13484984110425
C           -6.28748041095094       -0.48067733648970        2.60697386584683
C           -7.60535352647473       -0.91175893683349        2.56046287237080
C           -8.53917110894164       -0.11842952128263        1.91921610760178
C           -8.16961001633126        1.08268160405818        1.31917570703602
C           -6.86319946499638        1.53305746470051        1.34992473295582
C           -5.92598758968649        0.75008336112710        2.00923934998893
C           -4.16943425712181        3.32066373046208        1.83101870342239
C           -3.43875965547345        4.34425879580522        1.25664561282968
C           -1.40910690506944        6.44963178346496        0.64489018419688
C           -2.39932765053485        7.56867246170611        0.33205703349970
C           -2.21176009749947        8.08947962820643       -1.09540741039236
C           -1.87810838473232        6.94670580749422       -2.06516210410969
C           -2.37288364931617        5.61003366959542       -1.52022768350348
C            0.29007271339862        4.40410426407307       -1.85227846283875
C            1.50770354958775        3.77833562708401       -2.04559744091040
C            4.65045679666123        2.82690095916277       -0.35785450443520
C            5.77377227307865        2.03535774070779       -0.44884935343524
C            5.75340908723819        0.96969076499370       -1.34279281516225
C            9.08219550917457       -0.35953242673583       -1.37972935778561
C           10.23241963254251       -0.60346011816761       -0.62404175651945
C           11.46925331293985       -0.69606511822908       -1.23816140079220
N           12.49399682797464       -0.77849299702459       -1.77665790301210
H            8.72903108507964       -0.75618405069385        2.45909405391783
H            7.99486085377582        1.58165395177068        2.69581563847649
H            6.97313495625738        3.01658186091761        4.41642058155014
H            4.58357799710629        2.85870571737358        4.93940271952157
H            3.12835362946180        1.26581817173727        3.72852752757920
H            2.11852394640356       -0.65466879529343        2.05735783590607
H            1.56186930837823       -2.86052304848082       -1.74319549980719
H           -0.57640481622606       -3.97940681477179       -1.98310981435491
H           -4.10489306903582       -4.90359453397997       -2.25274801348353
H           -5.80490258969238       -3.29464003844149       -2.89886009135302
H           -4.06496310480920        0.68103103113667       -1.57646488053357
H           -4.26415324677936        3.11566320992189       -1.82896774981594
H           -6.44258553777944        4.17370406698025       -2.23179144176148
H           -8.49576121347423        2.80740494234739       -2.39250945105152
H          -10.33945226571751        0.76243535581459       -2.42735963903673
H          -11.48973733037225       -1.42308759697130       -2.31737626814207
H          -10.23628323265156       -3.47389537745005       -1.84561292204977
H           -7.79652889386735       -3.42272085351912       -1.50079560256175
H           -4.60584424659030       -0.72806669308114        0.28265014512945
H           -2.87600259806148       -2.33066012144073        0.93538087920250
H           -3.12538352820198       -6.46222167646424       -1.14169359429448
H           -1.80099897726560       -5.65514703338559       -1.98324286904034
H           -1.04015443167799       -7.80750483262415       -1.11695096218364
H           -0.23019398143043       -6.52638572201649       -0.21018483846608
H           -2.71239320110972       -8.06366100760875        0.68639678251670
H           -1.08355014986620       -8.27097300838493        1.33528797868212
H           -1.05794887299595       -5.97411189701093        2.15756897946360
H           -2.49509450442032       -6.78730059791489        2.78144778150109
H           -3.09749862506480       -4.52913741448867        1.96993815590704
H           -3.88852399673035       -5.77796163842372        1.02680406500163
H           -1.17293783658656       -3.72691171818881        2.24486521034905
H            0.95850625689603       -2.61848071465070        2.47539607464043
H            3.72166999532097       -3.35862179444695       -0.85721249388082
H            5.96773631391839       -2.43271276603733       -0.55445791987399
H            7.85783950308269       -2.21481649894007       -2.91267683908877
H            6.68240850872097       -3.34524464840151       -4.75761806164384
H            4.48415893287584       -2.57332289924702       -5.51861973625043
H            3.37526708819743       -0.64723302592328       -4.43052027428546
H            2.68733768964478        1.42292872876824       -2.75509197135521
H            2.43925292557595        3.40956659043359        1.17316840995995
H            0.28238565795739        4.49880650195788        1.51205387696431
H           -1.23268564953027        2.50386368686848       -0.50273486978835
H           -2.48351325709999        0.69338698158041        0.53936313034304
H           -1.93884412490438        0.32206474405812        2.99171757884641
H           -1.45509492829192       -1.76730034606034        4.21031316123184
H           -3.23371366011118       -3.37217071865541        4.72450714657942
H           -5.57139422444448       -2.92340412090583        4.05892093048443
H           -7.89163367903943       -1.85032302395806        3.01039304895974
H           -9.56948448260995       -0.43794876027897        1.86931287173002
H           -8.91837177998044        1.67275857665371        0.81310576087144
H           -6.58014379653223        2.45238639790996        0.86158085412397
H           -4.99541085714625        3.54605579102311        2.48916549017990
H           -3.71999345576623        5.36061629993963        1.47999363610708
H           -0.40164158632554        6.84724751955972        0.50200848321486
H           -1.49956194350896        6.16151029732813        1.69353959870202
H           -2.24960705672116        8.38531283197899        1.04196768604572
H           -3.42339352929513        7.21632766045051        0.45941406873091
H           -1.40679769940550        8.82679182930075       -1.11569337819200
H           -3.12493790396103        8.59873035160255       -1.41041094657962
H           -2.33185461400151        7.13953086788208       -3.03936812542586
H           -0.79814978406626        6.89436464435595       -2.21054654818073
H           -3.42856916823123        5.69967895576440       -1.25853553335082
H           -2.29956144741867        4.82898439084724       -2.27774190535701
H           -0.28310186841712        4.67236852977581       -2.72493866775040
H            1.85405109486012        3.59489388862662       -3.05240320700939
H            4.64788110956715        3.65566031760846        0.33382457122367
H            6.64584736969415        2.24171117684457        0.15303781368844
H            9.18800604307551       -0.22563650088854       -2.44794390198515
