166
 energy: -249.469047264524 gnorm: 0.000109407600 xtb: 6.7.1 (edcfbbe)
N           12.18873048661399       -1.24919166248669        2.05412551259699
C           11.25981242590940       -1.04891301752051        1.41151906823037
C           10.10705713787906       -0.79673544783992        0.63613645778725
C            8.86842997302539       -0.66429640412060        1.25325244699633
C            7.71583872280376       -0.42900662908870        0.51075294337198
N            6.49180293437991       -0.33534086775216        1.16511241706718
C            6.20265743202665        0.53467404851775        2.20968975602335
C            7.03295768605034        1.42235298832103        2.87593303556635
C            6.47332349353135        2.21265161755771        3.86418254443137
C            5.11987068292433        2.13096727658791        4.17882947845521
C            4.28558691687941        1.26026659412891        3.50419553417264
C            4.82561577637988        0.45758535241459        2.50895656928199
C            4.26298366556141       -0.52534133322909        1.62158675712367
C            2.99043010637709       -1.05448858168257        1.48097517588957
C            2.77233582225803       -2.06396119625431        0.55004753926150
C            1.44392764431241       -2.67914159022949        0.40611986646394
C            0.93438881565329       -3.03303669376319       -0.84090967923732
C           -0.28529268595815       -3.67141606521979       -0.95395937631892
C           -1.04260002760894       -4.00579952231367        0.16712220910740
C           -2.36054778553370       -4.75019209078766       -0.00620079907458
C           -3.37394613868953       -3.74484077923632       -0.54203345657046
C           -4.18571437148218       -3.97482099467730       -1.64615012505732
C           -5.14692596721877       -3.05758671873949       -2.03769266009544
C           -5.32325816204086       -1.88055010312747       -1.32198197422838
N           -6.32254125844324       -0.95680771603032       -1.66768467146233
C           -6.15298383311763        0.40757705462751       -1.78347137724119
C           -4.99141782114260        1.16339079213976       -1.71654833267066
C           -5.09714746695224        2.53051343073074       -1.88234221169085
C           -6.32517403016283        3.13955858316390       -2.13152078949149
C           -7.48027281334113        2.38977003518199       -2.23450538367388
C           -7.40008861072862        1.01423867987047       -2.06012988920292
C           -8.36780514932440       -0.04527140266143       -2.09818457252416
C           -9.74057701521847       -0.07883408138024       -2.30673659455023
C          -10.39095158177835       -1.29506334802013       -2.24472262281556
C           -9.69061269762081       -2.46688908405447       -1.96457970509455
C           -8.32439353803474       -2.45957112946200       -1.75841881942757
C           -7.66091116051666       -1.24361471978414       -1.84365680024361
C           -4.49285224812462       -1.62579351242309       -0.23644497967588
C           -3.53559845318555       -2.54199052891641        0.14220756163014
C           -2.17596520839894       -5.96249497532934       -0.93719198014839
C           -1.23314682626877       -6.99359973502095       -0.32286452423528
C           -1.83219844410466       -7.53676060284224        0.96947361723357
C           -2.07018878304495       -6.38969259173678        1.94485242561930
C           -2.93984043244839       -5.30159102935251        1.31569357266403
C           -0.56022362316365       -3.59054767910241        1.40402907831041
C            0.65749685281257       -2.94676052134514        1.52251233617163
C            3.84661736589020       -2.54027823102468       -0.21247098246559
C            5.12260146126117       -2.02822605218554       -0.08512140141485
C            5.32112514039619       -0.99248782865178        0.81403114175408
C            7.81387877505700       -0.29575170073271       -0.89766537609569
N            6.69429608964361       -0.01367582702649       -1.67132147596709
C            6.23375125527673       -0.77593339971288       -2.73943678903249
C            6.82260506639598       -1.85902652249634       -3.37242915189968
C            6.12124271549421       -2.46653546903421       -4.39911247899731
C            4.86062785440460       -2.01792008805016       -4.78183792362264
C            4.26082196468301       -0.95229398619098       -4.13821621858634
C            4.94695006166873       -0.32652816774093       -3.10686405277784
C            4.62306392696225        0.76721037414769       -2.22947017788585
C            3.51182143989707        1.58228143362549       -2.09597172289677
C            3.51272395905392        2.57685842866860       -1.12390008613216
C            2.29668414749675        3.36935755621242       -0.89526088039934
C            1.85898864703003        3.63520776116740        0.40114286007357
C            0.65208951945025        4.26517896183726        0.62047397231638
C           -0.16724853123888        4.66110045241158       -0.43738648490480
C           -1.54090673595885        5.22188349075332       -0.09715220499088
C           -2.34375226377282        4.09630220708297        0.54754658591444
C           -2.04491395037631        2.76520039987404        0.26957740536255
C           -2.77437301908313        1.73225910055025        0.82366080185609
C           -3.85210352522775        2.00619687144765        1.65696179182237
N           -4.60887096240903        0.95212500355418        2.19840861416895
C           -4.10280510662746       -0.14244198381253        2.86882913266983
C           -2.80240542399358       -0.40095839226696        3.27944014972422
C           -2.56312327880503       -1.58232995682104        3.95510200442654
C           -3.58755830758087       -2.48957662884848        4.22054937411625
C           -4.88579905578036       -2.23034166977921        3.82750753945928
C           -5.15317416098270       -1.04785752397176        3.14987805138009
C           -6.34767897285514       -0.46729205097833        2.60289321006059
C           -7.66900854478726       -0.88865400403728        2.52508009199151
C           -8.58273643857722       -0.08534902719453        1.87251701556662
C           -8.19184749512743        1.11900453272592        1.29081074336362
C           -6.88472921652684        1.56064585372953        1.35415554756852
C           -5.96614699722824        0.76601397542486        2.02428851740406
C           -4.17556988704649        3.32934048560970        1.92907319417245
C           -3.42650504316222        4.35467095970683        1.38145676034224
C           -1.34113790423330        6.43240109289394        0.85630706573386
C           -2.30124782985338        7.58822819378221        0.58610015581926
C           -2.10547598693228        8.15332592707008       -0.82313523520080
C           -1.81019310491350        7.03697177650491       -1.83508353860353
C           -2.33316766666853        5.69442127056007       -1.33238764363268
C            0.30124985656746        4.44755911833311       -1.72748331296975
C            1.51012863374840        3.81248082534587       -1.95245305885901
C            4.65863558440239        2.78635077619370       -0.34777805808707
C            5.77895710592570        1.98932154765662       -0.47149911120969
C            5.73016846490793        0.93820801902575       -1.37356442959533
C            9.05363860148612       -0.44220594392694       -1.51172696845237
C           10.19938898885002       -0.69435197261112       -0.76615653936452
C           11.44845797798055       -0.82871538992516       -1.41115253942699
N           12.45635117720230       -0.94073223712348       -1.94732320602841
H            8.79371861663352       -0.78424156349522        2.32377216740886
H            8.08167914035732        1.51087563825643        2.63326077081717
H            7.10193871774811        2.90875530816187        4.39941549476344
H            4.71968682974353        2.76385621945686        4.95689944816769
H            3.23323989796231        1.20631754457445        3.73819105023284
H            2.17767195326053       -0.68078916034072        2.08457079282571
H            1.49473959182680       -2.79330194125435       -1.73342852972615
H           -0.65023951224696       -3.91017505671637       -1.94170844629898
H           -4.08427418406017       -4.87748199225690       -2.22671580755491
H           -5.76073164717284       -3.25591756078010       -2.90414011974090
H           -4.03098373382912        0.70200196747457       -1.54783899149969
H           -4.20656363127084        3.13707333332577       -1.81310588617711
H           -6.36886717151677        4.21191422162377       -2.25560843267728
H           -8.42945868685099        2.85987114930196       -2.44607096389063
H          -10.28605468356858        0.83154754007408       -2.50768814699696
H          -11.45829200155773       -1.34285989811365       -2.40522131993958
H          -10.22898780230657       -3.40189942962007       -1.90542449335271
H           -7.79403929094267       -3.37041448515739       -1.52518343024825
H           -4.62646748192871       -0.71259528810583        0.31628270903861
H           -2.91343388064705       -2.32229829627625        0.99702603068606
H           -3.14577549544184       -6.44170936099380       -1.08602250831129
H           -1.80038730146481       -5.65247304833602       -1.91215517535818
H           -1.07323983828208       -7.80920153532857       -1.03221625718982
H           -0.26439260686659       -6.53332630559288       -0.11511510818464
H           -2.77903995255428       -8.03648546073177        0.74869608231459
H           -1.16173373063589       -8.27343773912554        1.41774696610119
H           -1.10373465444242       -5.97765257855904        2.23780886485142
H           -2.56331944007859       -6.76188180526809        2.84644749447186
H           -3.10518064581931       -4.49029378294129        2.02611787576800
H           -3.92218653896196       -5.72559155828043        1.08826523924476
H           -1.12938580751597       -3.76398817096930        2.30288403940878
H            1.01722622699215       -2.67635828234340        2.50492242956965
H            3.67908647182726       -3.35444465019897       -0.90167093102598
H            5.93567459812636       -2.44590921995911       -0.65920266312983
H            7.79172594426534       -2.23283776387325       -3.07701164568780
H            6.56320766235511       -3.30855283499159       -4.91089692496466
H            4.34555296253480       -2.51701184357048       -5.58907901231508
H            3.27645022373698       -0.61374545546462       -4.42332269211454
H            2.64452759745184        1.42767377916450       -2.71908120260066
H            2.45294268275164        3.30559042707587        1.24115106896626
H            0.31787779552941        4.42126817922262        1.63568229719157
H           -1.22838807417238        2.51996903558413       -0.39204530444510
H           -2.51475626136364        0.70752452517948        0.60060326098612
H           -2.00457672657469        0.29904817515140        3.08072788924210
H           -1.55963176335408       -1.80695943043701        4.28632297475637
H           -3.35976305858644       -3.40426724179324        4.74916241976466
H           -5.68004230206651       -2.93000013836788        4.04112590927599
H           -7.96998474180514       -1.83000508365265        2.96048090942497
H           -9.61407825290078       -0.39729297980725        1.79605595559010
H           -8.92569454747043        1.71715939765746        0.77160853557916
H           -6.58484085382868        2.48181430672296        0.87839897501493
H           -5.00847929048211        3.55216920865564        2.57977354003842
H           -3.69863707427784        5.37006542704098        1.62089486806881
H           -0.32314945806100        6.80862668124710        0.72966348274274
H           -1.44227795350654        6.10734430594436        1.89331658455010
H           -2.12759396495614        8.37547925004001        1.32343356090504
H           -3.33385985723192        7.25887400033408        0.70575591892744
H           -1.27947886538076        8.86731649496542       -0.82196034147367
H           -3.00536688552126        8.69924902764935       -1.11426747499088
H           -2.26776351918329        7.27456545524220       -2.79764945156844
H           -0.73321220035537        6.96184636102741       -1.99238893952658
H           -3.38522059877393        5.79735723270283       -1.06054783056175
H           -2.28429342683115        4.93790055386852       -2.11662143594285
H           -0.27605687003186        4.75087808688491       -2.58605845343997
H            1.84449983942466        3.65741906294001       -2.96842993736243
H            4.67198519337100        3.60312606374050        0.35821140997827
H            6.66033680275395        2.18936253122989        0.11862624631505
H            9.13299566886152       -0.31961152978202       -2.58148974719061
