166
 energy: -249.452811754405 gnorm: 0.000084429101 xtb: 6.7.1 (edcfbbe)
N            2.74409587658657       -7.09469102353270        5.58902141552757
C            2.02238437436768       -6.29355367427060        5.19749733298323
C            1.14858959364036       -5.29675831246926        4.71092983850885
C            1.57343152167845       -4.42243690128239        3.71755149404353
C            0.72774060910689       -3.43800995401137        3.21541103642130
N            1.17658486148461       -2.61093057655285        2.19269985151182
C            0.48960736832235       -2.30812390588355        1.02553652401248
C           -0.66406757249048       -2.87800091964957        0.51167436675361
C           -1.13718661431998       -2.39839846321137       -0.69602367748518
C           -0.46526222071390       -1.39735067200233       -1.39106965448586
C            0.72101517997914       -0.87372016302512       -0.91337009322373
C            1.21146508804626       -1.33769128866115        0.29890960841478
C            2.40195534010130       -1.05617453435142        1.05685908538913
C            3.47602190921769       -0.20537920190045        0.85105374241836
C            4.49753415288654       -0.15862377210964        1.79307970281941
C            5.67042167920134        0.70142871211296        1.57605408805269
C            5.54101295753649        1.97721802024847        1.03653169053733
C            6.65000128199638        2.77165809679108        0.80557422505388
C            7.92897480066819        2.31667773848031        1.09786128539700
C            9.19160838351348        3.14096255759670        0.88031845665661
C           10.17236420447547        2.22750916791287        0.15611424917363
C           11.42069738107931        1.85629131962198        0.63812515155364
C           12.24780996663882        1.01209044108340       -0.08238355733974
C           11.83631200897280        0.49970778543353       -1.30575606202536
N           12.67146437695679       -0.36336989547282       -2.03494839026344
C           13.03210186262495       -0.21139287667256       -3.35784944123537
C           12.71214605011252        0.80252239175288       -4.25042802652003
C           13.23321520902278        0.72653841304312       -5.52782568459470
C           14.06084882464346       -0.32605424424332       -5.91500974421431
C           14.39903825404040       -1.32698772128638       -5.02608238774103
C           13.88725821437048       -1.27324563146715       -3.73566687119675
C           14.03773031888353       -2.10676164090901       -2.57593547324138
C           14.72850085927704       -3.28635952293418       -2.32785509905103
C           14.64239229302140       -3.85294488986978       -1.07167415669907
C           13.86769279715328       -3.26596767049342       -0.07262644788403
C           13.17174570398299       -2.09322837928316       -0.29480707543548
C           13.27238617874651       -1.50619857499882       -1.54878248672379
C           10.57971992232697        0.84614937621284       -1.79271495873481
C            9.76936270574286        1.69617445419517       -1.06873089159930
C            8.95147638127624        4.38871306988574        0.01419646522488
C           10.26551211457069        5.11547217994701       -0.28627551223476
C           11.19127573846788        5.15595447270490        0.93731606062075
C           10.39809631069293        4.97757202489724        2.22786075118580
C            9.65064829293760        3.63667781587366        2.27225664088471
C            8.05561591707019        1.04411854176092        1.65073414419379
C            6.95211377170307        0.25100314349428        1.88733700726743
C            4.40767341708621       -0.94738042463711        2.94699420634188
C            3.34300531632713       -1.79728950514234        3.17418816934019
C            2.34935482600045       -1.86723197787481        2.21016568153596
C           -0.57790985052405       -3.30602057355595        3.75086946939966
N           -1.43745515898627       -2.30213168875851        3.31979900298506
C           -1.11778497413443       -0.95981669927493        3.17375319747713
C            0.00728069451562       -0.27298708954645        3.60091658989818
C            0.07084375757327        1.08400100085140        3.34198336453107
C           -0.96963905976006        1.74810843124839        2.69913378699785
C           -2.11892669028650        1.07733752970548        2.32637399387481
C           -2.20127713232117       -0.28600759358774        2.57132632104379
C           -3.22914035386744       -1.26941563741574        2.35338770949662
C           -4.49213356442136       -1.20971533637201        1.78620847735118
C           -5.24602213411753       -2.37294966076449        1.68365344797406
C           -6.58830206369013       -2.34115958755477        1.08312750738630
C           -7.48876219957231       -1.32533577698362        1.39618865021582
C           -8.74889547506150       -1.30291920748547        0.83448251338144
C           -9.15736544297500       -2.28116375646351       -0.06980207881441
C          -10.57321295368319       -2.21146222440184       -0.62846982717117
C          -10.78786333838769       -0.77113456236915       -1.07429622623881
C           -9.90484063638531       -0.25396991188829       -2.02162817121186
C          -10.01283131270674        1.04219499928656       -2.48209214716910
C          -11.01141740882167        1.87516371406897       -1.98737567164683
N          -11.12193554032988        3.20177410560527       -2.43732413067844
C          -10.10635905640609        4.13523905225646       -2.44778227483583
C           -8.79497101131377        4.01893695914054       -2.00753603728738
C           -7.97941120721044        5.12964306620902       -2.10947940558478
C           -8.45115459405173        6.33404653263130       -2.62881405079056
C           -9.75994772149083        6.46175031911344       -3.04974634428823
C          -10.60016799437124        5.35910660033811       -2.95761912869448
C          -11.98388715838454        5.13960269959635       -3.27333479960918
C          -12.98244506821921        5.94150407551812       -3.81180275253749
C          -14.23540519821813        5.39618168184443       -4.00973482308308
C          -14.49684406552930        4.06529279665834       -3.68814177858058
C          -13.52087864458057        3.24778859586823       -3.15137750267659
C          -12.26438010554643        3.79556592241631       -2.93193861210827
C          -11.88838753220958        1.38009402796138       -1.03136427877994
C          -11.77474883944677        0.07493788622167       -0.58530188604914
C          -10.78501459070108       -3.13700996912455       -1.83853370789437
C          -12.17723505394158       -2.94563584994960       -2.44682338338341
C          -13.25620562162838       -2.77980891753112       -1.36780660936279
C          -12.79755392060444       -3.37428326625373       -0.03998920054446
C          -11.52062026937103       -2.70568106341860        0.49068262404575
C           -8.25827414454987       -3.29324849167720       -0.37988072344213
C           -6.99726926499662       -3.32426795253320        0.18810570834074
C           -4.71725262254622       -3.58330390344367        2.14833139702015
C           -3.46482359073861       -3.66276608671758        2.72507315972162
C           -2.72550951830585       -2.49557002555943        2.83706187221516
C           -1.00454766658554       -4.19558386805837        4.73217280408207
C           -0.16253103695784       -5.19003196030983        5.21602159438723
C           -0.61683639720728       -6.07739928794338        6.21598191514204
N           -1.00069145863901       -6.79546605795800        7.02408677811966
H            2.56266911286791       -4.53439417396671        3.29974229012163
H           -1.17705135305339       -3.67937560878674        1.02063780440822
H           -2.04443500314217       -2.81520949555300       -1.10723509994297
H           -0.86887313836166       -1.04344470086963       -2.32790847482877
H            1.26212485213430       -0.12530264747966       -1.47174076877962
H            3.52742670940817        0.39717869325660       -0.04255861120362
H            4.55746444800661        2.36259801929590        0.80871255304039
H            6.49862923206591        3.75532886131198        0.38993344394252
H           11.78069615449114        2.22067376256568        1.58729734328030
H           13.22370526286614        0.75406445891704        0.30257153974145
H           12.08307487044610        1.62890660495143       -3.95537241899329
H           12.99693724340296        1.50221945702165       -6.24194254135579
H           14.44695324410053       -0.35086831062565       -6.92367195424329
H           15.05139883280429       -2.13500490597848       -5.32254493515392
H           15.31658674380028       -3.74998429483453       -3.10606138089089
H           15.17424983669372       -4.76866373925179       -0.85792218940947
H           13.80744523752144       -3.74105925752424        0.89598563688687
H           12.56160896987597       -1.65465135648517        0.48049189400684
H           10.23764456068835        0.43364269812449       -2.73050526738305
H            8.78959452896768        1.93483247292108       -1.45579791821339
H            8.46928944082725        4.11997893335807       -0.92631930963312
H            8.28496535645835        5.06239820571502        0.55429136901237
H           10.77879740709486        4.61750326340882       -1.11148462614955
H           10.03020866441613        6.13059639452956       -0.61387265182052
H           11.93877387613726        4.36685691146746        0.85974647624998
H           11.72690096908015        6.10710650970701        0.96863633261108
H            9.68447906078860        5.79970358304399        2.31400220794673
H           11.07014143262287        5.04483084891431        3.08619852937798
H            8.75994944598041        3.75989552396205        2.89443201122271
H           10.25930457688462        2.87446584947721        2.75676483418587
H            9.03878304723223        0.66420258842555        1.88841460393392
H            7.08667507336182       -0.74131048900296        2.29329889424531
H            5.18635689444594       -0.87550279564122        3.69153139601447
H            3.29450483258089       -2.37730112819961        4.08413947524055
H            0.80763708239829       -0.76704327092410        4.12999239375577
H            0.94595412381912        1.63641644718346        3.65034639254732
H           -0.88227976353467        2.80754728786200        2.50969231485678
H           -2.93976517697495        1.59967436191696        1.85934447269299
H           -4.87407399380124       -0.27585953595498        1.40328178048186
H           -7.20402597241239       -0.55907308012802        2.10299399715713
H           -9.43041845852463       -0.50728683581103        1.09929913574582
H           -9.10971908282421       -0.87709604612617       -2.40396344464135
H           -9.32825090647287        1.41462645121327       -3.22995314957398
H           -8.42511050752985        3.09389219746356       -1.59096177975441
H           -6.95346766969366        5.06414861099774       -1.77691794991999
H           -7.78145614007536        7.17929888474159       -2.69379025874911
H          -10.12824002767775        7.39906697630036       -3.43982076562885
H          -12.77729135435476        6.96899650690685       -4.07369439020873
H          -15.02577944559844        6.00379846851856       -4.42595399584698
H          -15.48383283940209        3.66333002776041       -3.86639914854594
H          -13.72817195742476        2.21387065779237       -2.91908370703047
H          -12.65367535975039        2.02526910515500       -0.62488705615079
H          -12.47143578647135       -0.26020269058423        0.16669769130175
H          -10.68010325820836       -4.17067418319999       -1.50662966351667
H          -10.03152757579662       -2.95080553169672       -2.60462417645196
H          -12.40112230374090       -3.81285459949473       -3.07208392613251
H          -12.17593963512680       -2.06780437719303       -3.09636526959239
H          -14.17925837606540       -3.26974956240227       -1.68493491160343
H          -13.48200098572288       -1.72256917892186       -1.23196396306001
H          -13.59243541706575       -3.27447682967961        0.70232414052459
H          -12.62218416465660       -4.44302263067251       -0.18013458067864
H          -11.76715258309744       -1.88203137369852        1.15932315266980
H          -10.97519146878265       -3.43711503767170        1.09316025775033
H           -8.52718930056146       -4.07406095616712       -1.07358113276777
H           -6.31298662921135       -4.11501909380323       -0.08497142843123
H           -5.31444380635836       -4.47938583034044        2.06833056307927
H           -3.08140244696287       -4.61366986226037        3.06490876954535
H           -1.99318583184022       -4.08725060596993        5.15236623427801
