  154
       -221.97172895
 C          3.4281015021       -0.8779052199       -5.3787098351
 C          2.6276319765       -0.9312938897       -4.0700414744
 C          2.8982071148       -2.2567580538       -3.3435751803
 C          1.1351678863       -0.8775168932       -4.4080192708
 C          3.0583594995        0.2148977497       -3.1690336444
 C          4.3688638799        0.2301849823       -2.6737553309
 C          4.8186544479        1.1800726292       -1.7792435537
 C          3.9164428680        2.1445549613       -1.3558561850
 C          2.6243729116        2.2107304506       -1.9138306492
 C          2.1964125300        1.2417227926       -2.8066018692
 C          1.9740272670        3.3369383175       -1.2949314601
 C          0.7057412588        3.8798465066       -1.4181524749
 C          0.3404761622        4.9589530064       -0.6239215872
 C         -1.0363665315        5.5994326843       -0.7021481474
 C         -1.9756985314        4.8619348510       -1.6609332031
 C         -1.6776408997        5.5974091489        0.6927288242
 C         -0.8812821733        7.0453804713       -1.1962682584
 C          1.2757538629        5.4710735309        0.2855218618
 C          2.5429044754        4.9440241447        0.4344919348
 C          2.8972565563        3.8715434719       -0.3696449516
 N          4.0654952501        3.1397865101       -0.4095095230
 C          5.0956817785        3.1994512466        0.5378583258
 C          5.7975284096        4.3833140759        0.7313517696
 C          6.8314863797        4.4401560355        1.6488150169
 C          7.1899583508        3.3095876335        2.3654347773
 C          6.4994890955        2.1260361310        2.1779070942
 C          5.4356279954        2.0633260966        1.2889225830
 C          4.6789616230        0.8123114379        1.1100566151
 N          5.3857084936       -0.3186084606        1.0602102812
 C          4.6731482999       -1.3948133314        0.6810688658
 C          5.4160450807       -2.6471392970        0.5260693402
 C          6.6649388731       -2.7945429942        1.1255119894
 C          7.3710991955       -3.9721081225        0.9743852358
 C          6.8462059631       -5.0057864371        0.2145521974
 C          5.6100063116       -4.8575372567       -0.3946684965
 C          4.8935864367       -3.6869705420       -0.2388213979
 N          3.3901908888       -1.3830113867        0.4046884841
 C          2.7207209531       -0.2234259860        0.5766821173
 C          1.3340046164       -0.1341064973        0.2901374009
 C          0.6383906190        1.0777991378        0.4982828419
 C         -0.6767268498        1.1973395332        0.1600131740
 C         -1.3875833362        0.1052354317       -0.3816140468
 C         -2.7813150766        0.1820579837       -0.6368966231
 N         -3.4534806087        1.3414074105       -0.4819622921
 C         -4.7452103906        1.3363693277       -0.7157432639
 C         -5.4892480036        2.5909798849       -0.5926555964
 C         -6.7760295428        2.6907705190       -1.1178990581
 C         -7.4827294434        3.8717174717       -1.0004658397
 C         -6.9194232144        4.9579758994       -0.3492549918
 C         -5.6443568780        4.8585694145        0.1853698522
 C         -4.9283895726        3.6838545576        0.0637316375
 N         -5.4627747515        0.2404381385       -1.0238115739
 C         -4.7483007498       -0.8856664635       -1.0626981333
 C         -5.5000201835       -2.1486563969       -1.1639547661
 C         -6.5998241382       -2.2532042289       -2.0038864529
 C         -7.2874376146       -3.4479139465       -2.1163954462
 C         -6.8893127325       -4.5475581747       -1.3730747199
 C         -5.8175761257       -4.4482776235       -0.5039045473
 C         -5.1184393210       -3.2529025987       -0.3858379741
 N         -4.0500833320       -3.1500463854        0.5144626039
 C         -2.8760086644       -3.8706290630        0.4513909349
 C         -2.5440149181       -4.9683797981       -0.3277705463
 C         -1.2656773781       -5.4767995954       -0.2143104373
 C         -0.2989435939       -4.9227784693        0.6357471432
 C          1.0885202632       -5.5435113068        0.6737552689
 C          1.6735758548       -5.5607660956       -0.7455002985
 C          2.0544255467       -4.7748806730        1.5801152434
 C          0.9750426173       -6.9814318442        1.2014367988
 C         -0.6429592472       -3.8195852543        1.4062865883
 C         -1.9212969361       -3.2938260229        1.3174657170
 C         -2.5586624239       -2.1529607928        1.9233412345
 C         -2.1067177163       -1.1480871437        2.7630076841
 C         -2.9667890357       -0.1197274569        3.1264022780
 C         -2.5151922079        1.0593695989        3.9731533461
 C         -1.0022557485        1.0596110554        4.2095721713
 C         -2.8775316776        2.3619223918        3.2451794354
 C         -3.2251255754        1.0045629108        5.3330894793
 C         -4.2970879406       -0.1689457280        2.6898292882
 C         -4.7706365810       -1.1535648838        1.8466570811
 C         -3.8737015433       -2.1206308799        1.4183317145
 N         -3.4455617984       -0.9531836441       -0.9568937321
 C         -0.6902396650       -1.1044378089       -0.5962278687
 C          0.6261412445       -1.2223038030       -0.2631117001
 N          3.3821768432        0.8952498640        0.9527261425
 H          3.1406948356       -1.7027881715       -6.0273954250
 H          4.4962030579       -0.9468351709       -5.1903409039
 H          3.2340184617        0.0566600556       -5.9011074069
 H          2.4139652156       -2.2410449203       -2.3703064786
 H          3.9615341723       -2.4236709154       -3.1949069057
 H          2.5010760438       -3.0899367132       -3.9201639257
 H          0.8697289654       -1.7406695456       -5.0154631824
 H          0.5326826034       -0.9013396044       -3.5023729691
 H          0.8919156358        0.0167083379       -4.9772783942
 H          5.0620195728       -0.5381546962       -2.9804030695
 H          5.8301055562        1.1483249328       -1.4008589963
 H          1.1870842573        1.2902313249       -3.1782962628
 H          0.0195002152        3.4379239787       -2.1200755503
 H         -1.5948054862        4.8899061841       -2.6793527424
 H         -2.9517655758        5.3435492197       -1.6568387223
 H         -2.1152980249        3.8257494628       -1.3621037711
 H         -1.1183333134        6.2115859921        1.3929983900
 H         -2.6906476204        5.9884573519        0.6354026620
 H         -1.7172726471        4.5849049158        1.0875092981
 H         -0.2565737450        7.6281723285       -0.5243380815
 H         -1.8555959250        7.5251520056       -1.2614706879
 H         -0.4235748881        7.0582959993       -2.1833052743
 H          1.0041271627        6.3092803550        0.9086122258
 H          3.2270746455        5.3491999460        1.1649253320
 H          5.5389054576        5.2500304865        0.1409452070
 H          7.3682677340        5.3660381256        1.7922843924
 H          8.0063899792        3.3522364135        3.0702953559
 H          6.7616571189        1.2370334302        2.7302508336
 H          7.0625357927       -1.9766624876        1.7057983647
 H          8.3362799986       -4.0864302762        1.4462527558
 H          7.4023163241       -5.9241702178        0.0932740262
 H          5.2086738851       -5.6595166561       -0.9979821419
 H          3.9342558327       -3.5548675083       -0.7113511594
 H          1.1778121300        1.9052144261        0.9343216042
 H         -1.2033429882        2.1275219215        0.3107544875
 H         -7.2021609667        1.8328044171       -1.6139756372
 H         -8.4780543536        3.9479236043       -1.4138548588
 H         -7.4755679423        5.8794599997       -0.2544089519
 H         -5.2122733847        5.7029133788        0.7035462905
 H         -3.9386844629        3.5901085242        0.4792396802
 H         -6.8928285167       -1.3880662626       -2.5782362621
 H         -8.1326065059       -3.5233564220       -2.7836571049
 H         -7.4239517924       -5.4818987782       -1.4577095640
 H         -5.5261971528       -5.2896603747        0.1075544297
 H         -3.2540204012       -5.4067682490       -1.0129753569
 H         -1.0107864724       -6.3341156965       -0.8182421937
 H          1.6932673775       -4.5540970388       -1.1564635730
 H          1.0884440673       -6.1871312362       -1.4132790243
 H          2.6896713438       -5.9471012106       -0.7218811424
 H          2.1769509828       -3.7459246619        1.2503223989
 H          3.0334310501       -5.2499185567        1.5539153414
 H          1.7089666618       -4.7796378862        2.6115213624
 H          0.5522818925       -6.9817094006        2.2040157138
 H          1.9593485828       -7.4431762056        1.2419394203
 H          0.3380947378       -7.5887011207        0.5636256033
 H          0.0674060501       -3.3462235726        2.0621973680
 H         -1.0820057968       -1.1707441023        3.0927440741
 H         -0.6936875968        0.1939775370        4.7910683170
 H         -0.7222886272        1.9509958615        4.7676643414
 H         -0.4636493919        1.0664270174        3.2642939027
 H         -3.9529727480        2.5022063542        3.1793245624
 H         -2.4737181189        2.3372334898        2.2361580286
 H         -2.4568389002        3.2163747192        3.7717663880
 H         -4.3050935137        1.0316173545        5.2137085678
 H         -2.9633660353        0.0879169424        5.8577441643
 H         -2.9258969094        1.8518374564        5.9466274234
 H         -4.9878001813        0.5991714676        3.0020707906
 H         -5.7973168804       -1.1475391748        1.5103906822
 H         -1.2300611767       -1.9325509961       -1.0304464459
 H          1.1536181460       -2.1513739062       -0.4171054848
