154
 energy: -221.971985494759 gnorm: 0.000102565603 xtb: 6.7.1 (edcfbbe)
C            3.89765222792811       -1.46244341075135       -4.99397971914752
C            3.05023700212212       -1.38352200234986       -3.71659694710458
C            3.29734476060231       -2.62437074440617       -2.84617902083978
C            1.57045788595937       -1.37183902596429       -4.10978272470413
C            3.44838182376586       -0.14723536386811       -2.92768331758872
C            4.72445135172944       -0.10488687359098       -2.35117439406341
C            5.13747626962933        0.92530640683695       -1.53263078920248
C            4.23634881127858        1.94933039159691       -1.28505614756784
C            2.98859692116066        1.98821454006900       -1.93827397810250
C            2.59364550002400        0.93245254464001       -2.74467672077307
C            2.34038872626770        3.19539573658150       -1.49161318380346
C            1.10961051761485        3.76735596889789       -1.76931801001686
C            0.74415352485064        4.95259517679188       -1.14329703621101
C           -0.57480613254125        5.65148920043254       -1.43605450919265
C           -1.54519748428007        4.76575716369542       -2.22396109559135
C           -1.26375936108298        6.05928303837184       -0.12641885904485
C           -0.27338446156889        6.90854175441146       -2.26629441442773
C            1.63879380330378        5.53717802528719       -0.23838485834981
C            2.86257963708578        4.97769290422250        0.07294407461666
C            3.21771992594862        3.80170840079328       -0.56624634331589
N            4.35895363401486        3.03458967476584       -0.44033766519283
C            5.27352535835279        3.08381387697307        0.62114060122532
C            6.07196727734068        4.20214196511537        0.82085175549215
C            7.00035675979302        4.21821315801430        1.84721787983438
C            7.15510655788475        3.11115874610278        2.66556615007715
C            6.36226578093688        1.99281551410475        2.47506633654178
C            5.40183952145399        1.97712605500504        1.47524112241804
C            4.51051677454447        0.81575708326316        1.28848930549784
N            5.07000986811527       -0.39290777048480        1.29463993583586
C            4.23314712984207       -1.38863543426634        0.94349739217652
C            4.77611410464748       -2.74382701686443        0.88162154272516
C            6.14775058844809       -2.96074631957523        0.99227513304701
C            6.65247577866671       -4.24432097128561        0.91211604266657
C            5.79815836969530       -5.31941207295549        0.72194242206057
C            4.43149141789335       -5.10952590535029        0.61602298665530
C            3.92159610537817       -3.82974981760149        0.69724058957491
N            2.97501345880563       -1.21521690425270        0.61451932083196
C            2.45863196961279        0.02407243754331        0.70366337396746
C            1.09886623195843        0.25185454392338        0.36476275981230
C            0.50115002709515        1.51175957458435        0.58200784291063
C           -0.81966513763696        1.71182689990313        0.30483675051786
C           -1.61952444879347        0.66367785359155       -0.19903584171075
C           -3.02446114221840        0.81684243591950       -0.32583344246235
N           -3.59902116149063        2.02826082473476       -0.17033261596267
C           -4.90949739968773        2.09804603049820       -0.19668880665470
C           -5.54602025286313        3.41172229870242       -0.09252788437812
C           -6.93519738271886        3.52135791560147       -0.11054068285458
C           -7.53273418718883        4.76312717465401       -0.01617958171303
C           -6.75381721395945        5.90384688889668        0.09948718047917
C           -5.37156511248098        5.79879682654257        0.12203478786126
C           -4.76739140160267        4.56099679891861        0.02631162280114
N           -5.72118930431354        1.03187215804612       -0.28647345575925
C           -5.09131150757773       -0.14161672316199       -0.42466458599701
C           -5.94359241714157       -1.33583915193013       -0.43196222320659
C           -7.27154356073234       -1.21330224831643       -0.83341615272106
C           -8.10748010327092       -2.31099214833530       -0.87221042174382
C           -7.62783708928492       -3.55499452277261       -0.49091034366575
C           -6.32018016402443       -3.69002753938219       -0.06480263923745
C           -5.46558868116541       -2.59124843246238       -0.02690762533820
N           -4.15191407209879       -2.78005350594541        0.41614817642550
C           -3.27597649453394       -3.69998727519893       -0.11704824091010
C           -3.44558273024042       -4.59046488255246       -1.16533146704340
C           -2.38355295676539       -5.40792773622069       -1.50609068947857
C           -1.15141243631091       -5.35572192016581       -0.84786744695289
C            0.01658639750680       -6.24788187078714       -1.24057508515484
C            1.12087217746921       -5.36074394937569       -1.83092609441461
C            0.54560789423784       -6.98227837138593       -0.00023263633967
C           -0.36273759618676       -7.30284286957199       -2.28395122811882
C           -0.98287447082902       -4.42983763996604        0.17842458830122
C           -2.03322990279478       -3.61073690785704        0.55025686892624
C           -2.18026080171426       -2.57569943002358        1.54096198196960
C           -1.30444656860779       -2.01814155432409        2.45868650622178
C           -1.74017655587144       -0.99565718155284        3.28868155426459
C           -0.82190983411418       -0.31662175048667        4.29230695190983
C            0.63103647790781       -0.78317885563725        4.16431378496372
C           -0.84724885330130        1.20030448681215        4.06089427004079
C           -1.31371506620729       -0.63763163389219        5.71140530234240
C           -3.07890775593936       -0.59096395296059        3.20606188223225
C           -3.97080097974152       -1.12889750899264        2.30023175652754
C           -3.50408989066418       -2.10440327396811        1.43304471705710
N           -3.79274352733675       -0.27931021755621       -0.51878087570228
C           -1.00267563840494       -0.57354480463551       -0.48424727353025
C            0.31539355749278       -0.77576916599995       -0.20222776672940
N            3.23989995713522        1.06292001614818        1.08057870052566
H            3.63732931996439       -2.35298197743543       -5.56235500570821
H            4.95806121417501       -1.50344163269162       -4.75897239744363
H            3.72086007334337       -0.58898656448297       -5.61846686560926
H            2.80046950360026       -2.50698232626464       -1.88646261139582
H            4.35526340350156       -2.78453685625687       -2.65816007730130
H            2.90691924823738       -3.51178158732547       -3.33830830930609
H            1.32288390195146       -2.30166246317335       -4.61844805492003
H            0.93753305474814       -1.28540448031087       -3.22930890849057
H            1.34943903835876       -0.55286045665172       -4.79035986844228
H            5.41430777531834       -0.91577315171589       -2.52634032507441
H            6.11710327686413        0.91499333934387       -1.07763369141357
H            1.61335164726898        0.95789530127911       -3.18981272128650
H            0.45252808654242        3.27057980318572       -2.46266578207614
H           -1.15760837364837        4.54180340533620       -3.21498689300521
H           -2.49294986013420        5.28605894848112       -2.35064819728783
H           -1.73826235041780        3.83259524243219       -1.69971945082460
H           -0.69752111101034        6.81408069040829        0.41178310966741
H           -2.24613851361726        6.47370649932037       -0.34138047374001
H           -1.38257150776496        5.19510938928301        0.52332674216677
H            0.38969882051926        7.58115415602852       -1.72749615417551
H           -1.19526801444595        7.44011091326866       -2.49309377546031
H            0.20771383655941        6.63519300351938       -3.20317215669948
H            1.37324644557950        6.46271991523264        0.24803553069060
H            3.51500478715324        5.44299382040771        0.79661923004440
H            5.97298370866646        5.04648248913415        0.15471090225254
H            7.61602276263863        5.09264140497302        1.99688777358685
H            7.89196617724417        3.12102833578806        3.45439246089754
H            6.46430447146312        1.12571335376550        3.10940734310607
H            6.79642601817156       -2.11078841636516        1.13629691971724
H            7.71668736667524       -4.41096609880204        0.99661080296299
H            6.19712154126774       -6.32141747591248        0.65838407749793
H            3.76606366327977       -5.94810786669002        0.47125216164213
H            2.86103886028283       -3.64435775393465        0.62630770765451
H            1.11056579037675        2.30141850191034        0.99561379342816
H           -1.29053905909731        2.66267412757378        0.50396705258114
H           -7.52613829638367        2.62303207693388       -0.19632729334892
H           -8.60991457107851        4.84554712767546       -0.03125134031077
H           -7.22365581592530        6.87389922339670        0.17384394634932
H           -4.76701335238586        6.68950226801387        0.21792329784520
H           -3.69484357181472        4.45867141065619        0.04209056853765
H           -7.62201069911805       -0.23641264929196       -1.12738039196860
H           -9.13051200190175       -2.20100782713806       -1.19839238841897
H           -8.27573002402205       -4.41847028275570       -0.51305260456066
H           -5.94950086952461       -4.64942441220886        0.26570284288161
H           -4.37611911182879       -4.64532009363031       -1.71031288580744
H           -2.53079410418775       -6.10189412463877       -2.31675138030612
H            1.46157750395415       -4.62487471202884       -1.10926256710259
H            0.74578594597231       -4.83110416082120       -2.70409198707951
H            1.97448491634838       -5.96559192787393       -2.13002450380906
H            0.92358392583946       -6.28935853678186        0.74579559763720
H            1.35590092693953       -7.65191126462107       -0.28189058746356
H           -0.24684242934833       -7.57392133899073        0.45361878584188
H           -1.16740267015671       -7.93911415591270       -1.92225726323690
H            0.49962495223967       -7.93413412276333       -2.48937148381908
H           -0.66559738325241       -6.84084901833055       -3.22056905419203
H           -0.04045847445338       -4.33543965570286        0.69447396822123
H           -0.29153320155749       -2.38097032490002        2.49581457243667
H            0.72872882427335       -1.84244829473319        4.39155071421010
H            1.25159371439611       -0.23311765652479        4.86925513488804
H            1.01051040107166       -0.59417290485124        3.16240088999747
H           -0.16207989767538        1.69312788422173        4.74779487945901
H           -1.83898908256151        1.61475663285570        4.21816832532498
H           -0.53923101676063        1.42414036229687        3.04205355550239
H           -2.32756893873577       -0.27830382082480        5.86672990826081
H           -1.30385215967825       -1.71275659961631        5.87957869285968
H           -0.66652103055718       -0.16659422668943        6.44833465234896
H           -3.44123397652865        0.17911949821858        3.86974706344273
H           -4.99429831482643       -0.78433008497209        2.26133565277219
H           -1.60335172008989       -1.35355975800938       -0.92689797409085
H            0.78620664284077       -1.72570615798464       -0.40541560377194
