154
 energy: -222.028902581572 gnorm: 0.000046252381 xtb: 6.7.1 (edcfbbe)
C            4.75328893616436       -2.48844203931342       -3.59091856150792
C            4.18018631996760       -2.82516201080898       -2.21132375738286
C            4.15188149602511       -4.35152778080436       -2.05456584659718
C            2.75091285282088       -2.26599433682136       -2.14232609539425
C            5.00094336233976       -2.21861556395600       -1.08324880094810
C            4.51132336255501       -2.30949309872722        0.22687344286555
C            5.13794588856127       -1.71195514034621        1.30056250436353
C            6.29075407126269       -0.98327290146497        1.05204439155247
C            6.85953174016536       -0.96182434385282       -0.23564897604459
C            6.20665580673555       -1.57150343537998       -1.29891013255713
C            8.05308215168539       -0.16707361073144       -0.13442330732667
C            9.01786628223977        0.21077179284924       -1.05802935249146
C           10.05676406564308        1.03990015888615       -0.66703111572013
C           11.16271771191567        1.47371019222049       -1.61903781593186
C           12.49924706017705        0.91473869202312       -1.11007896324212
C           10.94332861114321        0.96168495224227       -3.04546249880275
C           11.23244199292021        3.00648173197043       -1.67066171534896
C           10.09390588798608        1.48576997790808        0.66054947239791
C            9.14547217640369        1.12899132986601        1.59853986946970
C            8.12424404076180        0.28323358360064        1.20030980298157
N            7.05486474064118       -0.22262804066769        1.91843041472963
C            6.57861818467187        0.29156212132261        3.13175427116028
C            7.35578775843748        0.22042959457119        4.28143749721398
C            6.86430640193281        0.69132888801667        5.48595939919091
C            5.58239798384939        1.21188731511175        5.56218095061965
C            4.79972438942262        1.28684828549101        4.42423747743867
C            5.29615144935500        0.85769483884805        3.20095449545117
C            4.48556925061194        0.98935662621933        1.98025247865772
N            5.08965954403937        1.44409235175230        0.89084196818617
C            4.39314826830113        1.35287051757992       -0.23802507021135
C            5.07360090511729        1.70749508273159       -1.48067546885372
C            4.47288367129551        1.44304122610991       -2.70966708034776
C            5.15021763588199        1.71242150961709       -3.88260003743323
C            6.42545940767676        2.25488332629154       -3.83932778268860
C            7.01888469138181        2.53550133688358       -2.61884307797689
C            6.35084172842098        2.26257631624042       -1.44167737119363
N            3.14620308268265        0.89574386490631       -0.30114771283110
C            2.58245432066549        0.58067034547950        0.85977152498230
C            1.19992329965078        0.10553956192288        0.84615619266279
C            0.46446620952766        0.11458620575185       -0.33904379501533
C           -0.82524150544820       -0.36973928260489       -0.35553037773011
C           -1.40337787558947       -0.86423297893966        0.81376456998296
C           -2.78816097762180       -1.33264610930655        0.80993432439293
N           -3.49967413721510       -1.15924116329432       -0.29770076810823
C           -4.75505141772966       -1.59618698455723       -0.25951850033438
C           -5.58127987629758       -1.45974722356131       -1.45538017135750
C           -6.90394917358396       -1.89806609856298       -1.44134391166467
C           -7.69518017294514       -1.73071745973000       -2.56031292486000
C           -7.18237068369893       -1.12069542743709       -3.69415993739260
C           -5.86558289187135       -0.68730945530760       -3.71323496918327
C           -5.06447328068282       -0.85951023464840       -2.60172005731171
N           -5.32632670942391       -2.09602946380515        0.83220882949423
C           -4.56720639454842       -2.12942589436842        1.91828920420219
C           -5.24211283226633       -2.44902443949666        3.18776415167298
C           -4.75544237458295       -3.42464927600518        4.04437653491335
C           -5.44873441253222       -3.74527605720207        5.19852056853712
C           -6.62580300055551       -3.08269334278850        5.50669856071598
C           -7.09908264662311       -2.07746475625312        4.68140370036567
C           -6.40934267727372       -1.74599557572452        3.52287414661228
N           -6.84317627507419       -0.69646635426750        2.69900458779753
C           -5.98934410613863        0.25753256044677        2.17340326425624
C           -4.74047766685321        0.65657895632015        2.61587489249943
C           -4.04703588777329        1.58228866852313        1.85856041062875
C           -4.57023643769154        2.13452178653050        0.68666757545270
C           -3.76220885089147        3.07720840899956       -0.19343952709919
C           -4.49377115537694        4.42068049504775       -0.31530250237641
C           -2.35657618673207        3.34475342282322        0.35254722594551
C           -3.61243616293541        2.43002392270519       -1.57725071253082
C           -5.85987726356032        1.78698064093148        0.30313411340053
C           -6.57686350414332        0.85921922233886        1.04200096930423
C           -7.87164853366151        0.25012330839436        0.89169049019214
C           -8.90016457843615        0.42545504662894       -0.02329189370415
C          -10.05057564692358       -0.34157690791895        0.07724447985208
C          -11.23946597087490       -0.15441901633304       -0.85553694227130
C          -12.38369903256133        0.47875028827419       -0.05015186417314
C          -10.91279254633050        0.76133096993046       -2.03900829308175
C          -11.70211560287486       -1.50485787529529       -1.41990864803543
C          -10.13384884337897       -1.29083164178576        1.10352297325673
C           -9.12035090271794       -1.49624819724320        2.01896161910035
C           -7.98662546281573       -0.70876390326720        1.91982856284759
N           -3.27360069057263       -1.84330655351969        1.94080731137152
C           -0.66976555234632       -0.86801612228393        2.00035986516137
C            0.62235484102396       -0.38962998599723        2.01571253068189
N            3.21550773827351        0.61286949312239        2.03095821415155
H            4.10419712395991       -2.89566300155729       -4.36390133693808
H            5.74103837862039       -2.92375598120801       -3.72309259124987
H            4.81703491169833       -1.41129875851753       -3.72961465215728
H            3.72660440111015       -4.63886821447814       -1.09650299856804
H            5.16081685595521       -4.75483895337925       -2.11340975376299
H            3.55259401479434       -4.80005268994770       -2.84444280311660
H            2.18597923993900       -2.56483218221262       -3.02304145233366
H            2.21941584637852       -2.62615508146964       -1.26561555970824
H            2.77907834046418       -1.18028573950591       -2.09346997807496
H            3.59655075985884       -2.85059216194027        0.41562086452072
H            4.72191566122412       -1.78663224185712        2.29520443350491
H            6.64476907395445       -1.50266277076018       -2.28070121771639
H            8.92984707798787       -0.15000270664100       -2.06918400152318
H           13.30714373154649        1.19896954940949       -1.78145053255003
H           12.45681127985370       -0.17133938980673       -1.06032144726413
H           12.73142967411249        1.29129194268954       -0.11759802639320
H           10.00294268399306        1.32657855080592       -3.45232550119159
H           11.74922797891514        1.31491457037682       -3.68615535554474
H           10.94456008468550       -0.12530360824966       -3.07502695703392
H           11.47048411383425        3.42884090391500       -0.69871598607216
H           10.27915141093812        3.41872930385319       -1.99449403200042
H           12.00034682866598        3.32283351058052       -2.37390899444771
H           10.89308865805664        2.13849702083154        0.97779535774357
H            9.19966773103546        1.50907247671579        2.60784639851275
H            8.33926848409886       -0.22178053200465        4.22454983367286
H            7.47855029715267        0.63503439538850        6.37242423211029
H            5.19452074098063        1.55998731805127        6.50746038422164
H            3.80261340964659        1.69838511970722        4.46359095090346
H            3.48036172349666        1.02114605085311       -2.72510576333757
H            4.68687650076565        1.49891784808042       -4.83510838019646
H            6.95466295867368        2.46087981489760       -4.75867103416882
H            8.00944887834669        2.96362425501035       -2.58455251654778
H            6.80474240854147        2.46614399876243       -0.48499386274459
H            0.92329243477633        0.50687730556348       -1.23258181265600
H           -1.40520709750646       -0.37715916999373       -1.26491675797671
H           -7.29356903132650       -2.36038800123447       -0.54845331956717
H           -8.71816872225623       -2.07528452780365       -2.54845747257838
H           -7.80773475389457       -0.98496364907903       -4.56498941979755
H           -5.46545100075402       -0.21504293777929       -4.59867002446095
H           -4.03758852663282       -0.53174716128923       -2.60066809182275
H           -3.84399563140642       -3.94130705838378        3.78445309468888
H           -5.07282658899449       -4.51422132705454        5.85631198597402
H           -7.16984468985851       -3.33752191215405        6.40411940977688
H           -7.99600558913197       -1.53251335761516        4.93553758499091
H           -4.30008887671689        0.23564081532907        3.50837888294516
H           -3.06119015273636        1.85918961944236        2.19378910465511
H           -5.47886666369042        4.29658721727894       -0.75630464237865
H           -3.92332104031860        5.10364096127975       -0.94167964899710
H           -4.61506338795646        4.87258528743157        0.66711096161242
H           -2.39801500749153        3.82352586065821        1.32832047868154
H           -1.82712998004852        4.01217321570297       -0.32503688861223
H           -1.78382553044768        2.42262301904018        0.42973091270093
H           -4.57816707724328        2.28380794964933       -2.05362322889819
H           -3.13352217551124        1.45947209971167       -1.47204666332951
H           -3.00016540285939        3.05600541371764       -2.22356316436819
H           -6.31071171098170        2.21042086421090       -0.58140727100924
H           -8.77754365158163        1.16258304940427       -0.79919419007056
H          -12.67320862943619       -0.15916043167162        0.78109969341880
H          -13.25355652067635        0.63335639281913       -0.68549087460501
H          -12.07301067960960        1.44071809546327        0.35220094311780
H          -10.69083800637447        1.77167441486432       -1.70434563699411
H          -11.77054947022848        0.81392726663710       -2.70694920788965
H          -10.06402378114020        0.37947242144659       -2.60223399183638
H          -10.88272368737829       -2.00437025010565       -1.93133316433317
H          -12.06793421645631       -2.16464853348927       -0.63877182964227
H          -12.50979806510240       -1.35260210824259       -2.13321864774329
H          -11.02364671059471       -1.89441874047767        1.19686271763956
H           -9.21372053135286       -2.25178694081532        2.78490413230390
H           -1.13706781246597       -1.24881516253108        2.89507521525541
H            1.20857728163893       -0.38998044728368        2.92145261797637
