  48
        -81.17970447
 C          8.4710825185        0.8291536935        1.0880857107
 C          8.3855312043       -0.0901198010        0.0463098557
 C          7.1607685568       -0.4853992741       -0.4362207319
 C          5.9798053684        0.0396741036        0.1236960076
 C          4.7200848852       -0.3745261008       -0.3732891875
 N          4.4991204483       -1.2339542395       -1.3612614961
 N          3.2176240545       -1.3566624251       -1.5318946872
 C          2.5983460035       -0.5640185746       -0.6375765383
 C          1.2258362006       -0.3970111079       -0.4813240582
 C          0.3177673650       -1.1158450645       -1.3165561477
 C         -1.0262472940       -0.9834472831       -1.1550403921
 C         -1.5499508329       -0.1069069393       -0.1772365029
 N         -2.9371119516        0.0281600446       -0.0182458206
 C         -3.7276707811       -1.0789421958        0.2632095227
 C         -3.1838451758       -2.3484650196        0.4723223690
 C         -4.0013587342       -3.4285835241        0.7416845926
 C         -5.3764214179       -3.2695810700        0.8254091488
 C         -5.9319970679       -2.0118463016        0.6691436224
 C         -5.1190432145       -0.9216066144        0.4006889096
 O         -5.7235076860        0.2965883862        0.3072990165
 C         -4.9377165038        1.3810071872        0.0537962823
 C         -5.5691110602        2.6112787657       -0.0405444148
 C         -4.8365113766        3.7454805662       -0.3436982456
 C         -3.4744928259        3.6402959139       -0.5826001414
 C         -2.8365781530        2.4189989473       -0.4885247746
 C         -3.5477679004        1.2698663419       -0.1350854754
 C         -0.6631685961        0.6260018309        0.6409120651
 C          0.6838320745        0.4791705093        0.5068567900
 O          3.5338914233        0.0987131198        0.1325298105
 C          6.0755798715        0.9697214576        1.1759710950
 C          7.3103248219        1.3532847338        1.6460572601
 H          9.4365122820        1.1353985422        1.4616429838
 H          9.2892763098       -0.4943097670       -0.3854818235
 H          7.0718446047       -1.1957268962       -1.2423054396
 H          0.7355654546       -1.7535546395       -2.0776810321
 H         -1.7127089802       -1.5118098097       -1.8008816926
 H         -2.1145632730       -2.4774187690        0.4334561141
 H         -3.5577184944       -4.3998839445        0.8944579437
 H         -6.0126701501       -4.1155397838        1.0306279940
 H         -6.9935096595       -1.8466433391        0.7595742834
 H         -6.6345006331        2.6515245563        0.1192619488
 H         -5.3308350912        4.7012854780       -0.4116277431
 H         -2.9027167185        4.5144741050       -0.8520613666
 H         -1.7828506528        2.3418830929       -0.7016597240
 H         -1.0718120729        1.2691513204        1.4074459949
 H          1.3646262969        1.0083088205        1.1546460829
 H          5.1698527276        1.3716540373        1.6038425177
 H          7.3790396856        2.0671451097        2.4542812153
