48
 energy: -81.297074956881 gnorm: 0.000168632446 xtb: 6.7.1 (edcfbbe)
C            8.40611095442038        0.83291381300391        1.20042023692171
C            8.37679157176838       -0.00389606707875        0.09406822455036
C            7.16876849063337       -0.40154191583729       -0.44463329599884
C            5.97591976346544        0.04127986922762        0.12892119313861
C            4.71638524353819       -0.37896401561154       -0.43941616971884
N            4.54088784979973       -1.16098453351285       -1.46593174975256
N            3.21826589036001       -1.28858617766763       -1.65043433429348
C            2.62844444732084       -0.57965089107591       -0.73031379160315
C            1.20823433283021       -0.41717661668396       -0.53712778152750
C            0.31802833440596       -1.06087322328611       -1.39979255464183
C           -1.04076493331748       -0.91373612871147       -1.22437750327794
C           -1.53495400817169       -0.12312651694933       -0.18583246301501
N           -2.92469443701815        0.02343467879150       -0.00707386378084
C           -3.72553840922274       -1.08819392421713        0.27653373225521
C           -3.19348186085270       -2.35712099151830        0.47222068114087
C           -4.01509351257344       -3.43696063844570        0.75859798740996
C           -5.38087032381308       -3.26662932242380        0.86602455127797
C           -5.92477783836904       -2.00034042224197        0.70785758470259
C           -5.10869001611325       -0.92031328962035        0.42500889688521
O           -5.71922679291769        0.30743102868770        0.31954634758997
C           -4.91665814836874        1.39217919418378        0.05498139795610
C           -5.54390756957852        2.62022044307926       -0.05011096607387
C           -4.80966242456969        3.75855667677421       -0.34909062217767
C           -3.44963565151303        3.65264845769642       -0.56025000524270
C           -2.81633068938005        2.42344746562723       -0.45383410945717
C           -3.53102890282607        1.27882903858091       -0.12117708367817
C           -0.64564886533356        0.51911410350663        0.67457630479134
C            0.71498569972718        0.37479435145911        0.50071968320169
O            3.53134544447426        0.02812130494649        0.07730577159955
C            6.00760596813626        0.88241617389358        1.24104420285935
C            7.22239099566361        1.27373395775395        1.77153013979678
H            9.35278807884457        1.14168842823000        1.61799626746147
H            9.29993202806629       -0.34618473180445       -0.34885255167009
H            7.12010026386972       -1.05065632083725       -1.30471194586309
H            0.71571194173669       -1.66236210391413       -2.20145579650337
H           -1.73231469714997       -1.40373662868684       -1.89320816934015
H           -2.12699970266385       -2.50337974554601        0.40607194662134
H           -3.57328083577552       -4.41138122565537        0.89958856783169
H           -6.02573564552853       -4.10331486228453        1.08376986946886
H           -6.98484032974003       -1.82652001824798        0.80637979423831
H           -6.61140212391213        2.66201533080412        0.09942098429155
H           -5.30726770068008        4.71237224223631       -0.42611539934782
H           -2.86690413667422        4.52464876575637       -0.81479617072213
H           -1.75638542242045        2.35384912826994       -0.64007544054557
H           -1.02995389387795        1.12338469348553        1.48270285699338
H            1.40297396216443        0.86647487868641        1.17180751066704
H            5.08117328201564        1.22186454280637        1.68031347717265
H            7.24603289254275        1.92421494579348        2.63321364226066
