  68
       -115.10711111
 C          2.3873484925       -5.2934777090       -1.0643698490
 C          3.7425950657       -5.3204413477       -0.7503055720
 C          4.4164113317       -4.1622475483       -0.4206584387
 C          3.7301264361       -2.9500065841       -0.3918841571
 C          2.3606089706       -2.9447938122       -0.7066544853
 C          1.6851186159       -4.1024998837       -1.0500295509
 S          1.6512604023       -1.3454875537       -0.6089190442
 C          3.1965370731       -0.6700122907       -0.1545328864
 C          4.2223671479       -1.6323943700       -0.0895313668
 C          5.5372315059       -1.2475627747        0.1982040033
 C          5.8599944960        0.0813082901        0.3709946650
 C          4.8564713402        1.0430659077        0.2913659676
 C          4.8638700512        2.4784571670        0.3485656670
 C          5.8635954704        3.4259855328        0.5213773735
 C          5.5142458766        4.7640205199        0.5130634448
 C          4.1922245102        5.1651435791        0.3338037624
 C          3.1780791343        4.2399799850        0.1617857810
 C          3.5258869836        2.8998490416        0.1670348605
 N          2.7132519537        1.7888189075        0.0253270371
 C          1.3330297312        1.7937994359        0.0122858845
 C          0.6133624244        1.0011233055        0.8883294244
 N         -0.7104564074        1.0175496248        0.9505811095
 C         -1.3642398710        1.8347521129        0.0724786604
 N         -2.7399967253        1.7812089793        0.0362531324
 C         -3.5734254544        2.8664026016       -0.1838335399
 C         -3.2731012784        4.2197476820       -0.2183338001
 C         -4.3111498536        5.1077150585       -0.4400041854
 C         -5.6200689245        4.6635517459       -0.6144926764
 C         -5.9316725043        3.3192585666       -0.5430185070
 C         -4.9065197069        2.4103899688       -0.3159033910
 C         -4.8724598503        0.9871008799       -0.1513653167
 C         -5.8697951477        0.0176308317       -0.1972406095
 C         -5.5270704325       -1.3058838162       -0.0321330441
 C         -4.1977867263       -1.6731366818        0.2017431798
 C         -3.6813614608       -3.0018776790        0.3837442851
 C         -4.3587904096       -4.2200309935        0.3863718281
 C         -3.6534442508       -5.3907875905        0.5740680282
 C         -2.2759610907       -5.3709779257        0.7743020854
 C         -1.5854673344       -4.1736374965        0.7912740828
 C         -2.2917091780       -3.0011707441        0.5853160845
 S         -1.6095508641       -1.3858267532        0.5934111496
 C         -3.1786129228       -0.6978997656        0.2763891273
 C         -3.5164686485        0.6369697322        0.0813121750
 C         -0.6410465440        2.6390854349       -0.7921030461
 N          0.6835219558        2.6534237296       -0.8263624678
 C          3.5083723551        0.6636913860        0.0718982354
 H          1.8779221392       -6.2090397945       -1.3239298462
 H          4.2733101383       -6.2605530186       -0.7690992759
 H          5.4692241254       -4.1894825924       -0.1846838042
 H          0.6359862488       -4.0684658827       -1.3001161303
 H          6.3041366275       -2.0041942393        0.2544773097
 H          6.8807731284        0.3798635102        0.5520939561
 H          6.8903082651        3.1218446674        0.6564562886
 H          6.2786472862        5.5148618637        0.6463117417
 H          3.9550546657        6.2182635622        0.3308178371
 H          2.1528650050        4.5416023691        0.0174532644
 H          1.1196669631        0.3990692846        1.6276380078
 H         -2.2684135397        4.5777974393       -0.0557515834
 H         -4.1021204968        6.1661904829       -0.4719791526
 H         -6.4026484299        5.3857504206       -0.7916929817
 H         -6.9500489936        2.9792397792       -0.6526024270
 H         -6.8946667595        0.3060368928       -0.3713919133
 H         -6.2823985817       -2.0744416302       -0.0836827296
 H         -5.4288525814       -4.2429382231        0.2444821167
 H         -4.1758657043       -6.3361459681        0.5711387661
 H         -1.7423515844       -6.2978206004        0.9218416884
 H         -0.5198838239       -4.1456593907        0.9597022461
 H         -1.1430545560        3.2259810302       -1.5471251970
  68
       -115.10651735
 C          4.3839530261       -0.1444146463       -6.1469466211
 C          5.7073200388       -0.0918080840       -5.7177692414
 C          6.0128613073       -0.0093155260       -4.3754843431
 C          4.9842092738        0.0156540048       -3.4351899650
 C          3.6547931673       -0.0337331723       -3.8868296188
 C          3.3468995941       -0.1089065174       -5.2340183224
 S          2.4927952340        0.0554379549       -2.5759989168
 C          3.7850243395        0.1077395771       -1.4069994336
 C          5.0645317737        0.0811088747       -2.0022464004
 C          6.2196721862        0.0914964166       -1.2128806688
 C          6.1325325528        0.1083625333        0.1618515947
 C          4.8767926037        0.1108246770        0.7622208556
 C          4.4558245836        0.0803113653        2.1333568829
 C          5.1395523863        0.0689730831        3.3419070940
 C          4.4084112428        0.0675628083        4.5149157859
 C          3.0157480194        0.0966217229        4.4954636101
 C          2.3120135048        0.1052654289        3.3038673052
 C          3.0407751367        0.0750059272        2.1248500395
 N          2.5960724778        0.0971350394        0.8138025759
 C          1.2771721930        0.0754282568        0.4170553153
 C          0.3588206346       -0.7870903513        0.9852894813
 N         -0.9029746344       -0.8574282780        0.5817494511
 C         -1.2749945735       -0.0254611692       -0.4342985712
 N         -2.5965098339       -0.0328687831       -0.8208555196
 C         -3.0477183703        0.0614016548       -2.1268678824
 C         -2.3280110461        0.0536067744       -3.3121644422
 C         -3.0377810445        0.1414607131       -4.4969352545
 C         -4.4283853528        0.2251475416       -4.5049163879
 C         -5.1520530930        0.1968221716       -3.3276949619
 C         -4.4619558404        0.1050352037       -2.1262146032
 C         -4.8763923300        0.0218137449       -0.7556705656
 C         -6.1304679674        0.0330802555       -0.1523656431
 C         -6.2147350157       -0.0266437052        1.2210486019
 C         -5.0582358269       -0.1046192475        2.0043409101
 C         -4.9776581529       -0.1428998634        3.4383737377
 C         -6.0062245247       -0.1543967270        4.3790727847
 C         -5.6994674878       -0.1860384743        5.7233779273
 C         -4.3755745319       -0.2127367287        6.1532458256
 C         -3.3393312335       -0.2127640428        5.2385828008
 C         -3.6481998910       -0.1728817307        3.8901243783
 S         -2.4882388033       -0.2068972024        2.5741403552
 C         -3.7802073104       -0.1345904425        1.4052613134
 C         -3.6917290432       -0.0702077095        0.0199088049
 C         -0.3554479975        0.8373494636       -1.0024609158
 N          0.9075297376        0.9029597193       -0.6041065761
 C          3.6942215252        0.1246543477       -0.0211348474
 H          4.1654384070       -0.2121276624       -7.2019098243
 H          6.5030150535       -0.1158563082       -6.4471115888
 H          7.0409238879        0.0369605154       -4.0498702606
 H          2.3176729989       -0.1429431882       -5.5565942453
 H          7.1840418713        0.0723074139       -1.6961623563
 H          7.0227189878        0.1071362322        0.7713415564
 H          6.2185440377        0.0682701466        3.3606098340
 H          4.9218876883        0.0577966749        5.4645683229
 H          2.4737601679        0.1187506233        5.4286279025
 H          1.2338885879        0.1512167602        3.2972383555
 H          0.6618187702       -1.5066076171        1.7311629238
 H         -1.2527946534       -0.0374364540       -3.3168840545
 H         -2.5023747873        0.1387894729       -5.4341251741
 H         -4.9465229143        0.2978032518       -5.4492601888
 H         -6.2303736504        0.2380840344       -3.3380996129
 H         -7.0206678139        0.0982616553       -0.7583003188
 H         -7.1768107482       -0.0035504385        1.7086953019
 H         -7.0349613814       -0.1414999379        4.0526358225
 H         -6.4947417419       -0.1922375838        6.4536048620
 H         -4.1560805775       -0.2359986655        7.2099255186
 H         -2.3099126954       -0.2407007980        5.5610831534
 H         -0.6604701869        1.5637534285       -1.7407363216
  68
       -115.10636122
 C          4.2700487176       -0.4487412626       -6.1310889185
 C          5.6023072510       -0.3741398151       -5.7336724938
 C          5.9361235641       -0.2067262391       -4.4061149552
 C          4.9276658828       -0.1162834695       -3.4481151140
 C          3.5887649202       -0.1882806172       -3.8684650705
 C          3.2524305475       -0.3495074189       -5.2012082931
 S          2.4550676480       -0.0145409348       -2.5420958981
 C          3.7717438195        0.1061940894       -1.4058870857
 C          5.0384345950        0.0379926122       -2.0240869990
 C          6.2086548113        0.0896902348       -1.2586485761
 C          6.1485795045        0.1849034538        0.1144734851
 C          4.9050025322        0.2267473500        0.7386039716
 C          4.5082323111        0.2682687805        2.1167897549
 C          5.2124181455        0.3159068137        3.3126224631
 C          4.5012857313        0.3723828206        4.4966320511
 C          3.1084126879        0.3985689810        4.5001685980
 C          2.3843047117        0.3494370853        3.3218325581
 C          3.0930769551        0.2654608820        2.1335065752
 N          2.6254000349        0.2264793817        0.8314777748
 C          1.3002400314        0.2026567584        0.4528602438
 C          0.3872997532       -0.6492115054        1.0448960929
 N         -0.8719297136       -0.7430611951        0.6382671759
 C         -1.2508017647        0.0615328961       -0.3977838274
 N         -2.5652352496        0.0143426782       -0.8018190482
 C         -2.9985585427        0.1087731873       -2.1146662422
 C         -2.2619656521        0.1337591766       -3.2894810242
 C         -2.9562633579        0.2161792750       -4.4838599893
 C         -4.3483671773        0.2614220737       -4.5124696903
 C         -5.0880292226        0.1952404693       -3.3469185203
 C         -4.4132200101        0.1078978673       -2.1363962574
 C         -4.8464983992       -0.0101195601       -0.7745786992
 C         -6.1110425782       -0.0558623202       -0.1955861264
 C         -6.2180245042       -0.1478917102        1.1743007409
 C         -5.0734981995       -0.2006518550        1.9769136045
 C         -5.0196308874       -0.2706845595        3.4109433081
 C         -6.0653480043       -0.3475855489        4.3292705737
 C         -5.7841119668       -0.4016041021        5.6784481796
 C         -4.4690095475       -0.3861085056        6.1347065957
 C         -3.4158630040       -0.3216910186        5.2419835564
 C         -3.6993151209       -0.2602723538        3.8887654363
 S         -2.5133066885       -0.2220126447        2.5958318834
 C         -3.7838951116       -0.1699535860        1.4026099097
 C         -3.6724388741       -0.0741374887        0.0202892964
 C         -0.3425939213        0.9344670488       -0.9697248293
 N          0.9204380197        1.0154051273       -0.5761753708
 C          3.7083063530        0.2043316206       -0.0223367776
 H          4.0292303021       -0.5841432058       -7.1746099284
 H          6.3825308169       -0.4488777811       -6.4763511115
 H          6.9708971322       -0.1450010720       -4.1052407426
 H          2.2166507923       -0.4011407045       -5.4994763497
 H          7.1633867626        0.0380669243       -1.7584160932
 H          7.0508108603        0.2130133992        0.7053338904
 H          6.2916192181        0.3150957575        3.3130982640
 H          5.0311264573        0.4097045964        5.4365674171
 H          2.5827257423        0.4643904155        5.4405505066
 H          1.3059642122        0.3911057287        3.3304555658
 H          0.6944371281       -1.3452196504        1.8111965765
 H         -1.1849092638        0.0693476739       -3.2808070616
 H         -2.4068252431        0.2394040415       -5.4126289771
 H         -4.8541635189        0.3324217121       -5.4636464056
 H         -6.1668376076        0.2044531226       -3.3729136393
 H         -6.9915204882       -0.0109665466       -0.8173104331
 H         -7.1887889314       -0.1710949990        1.6441843736
 H         -7.0871627456       -0.3681913425        3.9820197316
 H         -6.5927595147       -0.4592394899        6.3916956408
 H         -4.2696466008       -0.4277349228        7.1948205579
 H         -2.3927457681       -0.3176440827        5.5849287430
 H         -0.6568288505        1.6533018554       -1.7115708231
  68
       -115.10627423
 C          4.4847873471        0.7352894802       -6.0948708740
 C          5.7990696220        0.6828614493       -5.6390488791
 C          6.0766390601        0.5174889337       -4.2981482472
 C          5.0277025724        0.3956603937       -3.3882917134
 C          3.7083600016        0.4549346531       -3.8651583162
 C          3.4288132163        0.6283589550       -5.2094862518
 S          2.5195773620        0.3460748136       -2.5786529618
 C          3.7864477336        0.1704458383       -1.3931647409
 C          5.0773355632        0.2140606860       -1.9638706523
 C          6.2192337606        0.0726195416       -1.1682848420
 C          6.1082060783       -0.1203943425        0.1906822800
 C          4.8421383942       -0.1797278363        0.7649968088
 C          4.4050313308       -0.3890943862        2.1144532216
 C          5.0765700782       -0.5835927478        3.3142694051
 C          4.3346453434       -0.7183469642        4.4724287328
 C          2.9441310049       -0.6355813345        4.4489710350
 C          2.2530470885       -0.4466861823        3.2648919984
 C          2.9907968578       -0.3534610947        2.0941806912
 N          2.5608306231       -0.1519725724        0.7922026935
 C          1.2458900761       -0.1433965789        0.3876105371
 C          0.3185668760       -1.0323368163        0.9016399964
 N         -0.9467534118       -1.0570631571        0.5081981205
 C         -1.3083460576       -0.1698964813       -0.4642827781
 N         -2.6343386938       -0.1363026459       -0.8404101000
 C         -3.1039079624       -0.0923284334       -2.1413533166
 C         -2.3979566475       -0.1323392391       -3.3335607506
 C         -3.1235234069       -0.0980086654       -4.5115142100
 C         -4.5151144630       -0.0330114804       -4.5037971043
 C         -5.2240546056       -0.0190381462       -3.3171865260
 C         -4.5185326174       -0.0550477365       -2.1216850833
 C         -4.9127957971       -0.0735557265       -0.7421666659
 C         -6.1534490883       -0.0256879428       -0.1125602521
 C         -6.2083161301        0.0032711858        1.2638589084
 C         -5.0358947886       -0.0182107215        2.0274877274
 C         -4.9171291767        0.0650508186        3.4568163556
 C         -5.9200904116        0.1455680830        4.4214413852
 C         -5.5782483952        0.2419762044        5.7539897045
 C         -4.2434615176        0.2537224074        6.1497964570
 C         -3.2314734391        0.1629751570        5.2128600170
 C         -3.5756225611        0.0738023900        3.8753714558
 S         -2.4508148299       -0.0725861104        2.5382036385
 C         -3.7732043855       -0.0956679990        1.4024434804
 C         -3.7151366159       -0.1261821547        0.0157064313
 C         -0.3762419502        0.6961246740       -1.0031890355
 N          0.8847215982        0.7357206770       -0.5927978737
 C          3.6707191541       -0.0281709320       -0.0220646513
 H          4.2883365175        0.8636043130       -7.1485923332
 H          6.6101338212        0.7751381915       -6.3459358971
 H          7.0981527746        0.4858979839       -3.9506008672
 H          2.4064974423        0.6760058434       -5.5515343325
 H          7.1908800186        0.1083119625       -1.6355156112
 H          6.9864855359       -0.2331785278        0.8069320936
 H          6.1547770100       -0.6212703831        3.3383162373
 H          4.8377565867       -0.8734632957        5.4149440544
 H          2.3935136282       -0.7144104977        5.3739640629
 H          1.1780775145       -0.3539549142        3.2626059743
 H          0.6176488399       -1.8073597469        1.5913409311
 H         -1.3210902825       -0.2022082845       -3.3456405945
 H         -2.6002625186       -0.1273924001       -5.4551229868
 H         -5.0461102131       -0.0046769539       -5.4434291398
 H         -6.3027573986        0.0130880843       -3.3158734157
 H         -7.0572509199        0.0025888363       -0.7010380352
 H         -7.1603143654        0.0588343321        1.7684520067
 H         -6.9569970695        0.1325794814        4.1215728258
 H         -6.3541180564        0.3097114660        6.5019071897
 H         -3.9961853747        0.3336827021        7.1975551599
 H         -2.1939711172        0.1662881035        5.5096912494
 H         -0.6676344260        1.4453545561       -1.7240723187
  68
       -115.10513375
 C          1.3670543360       -5.0117231497       -1.2557237058
 C          2.7240483572       -5.2340064036       -1.0424468975
 C          3.5756029422       -4.1894495291       -0.7449895199
 C          3.0703006620       -2.8951059567       -0.6455676593
 C          1.6972334326       -2.6925609806       -0.8658559927
 C          0.8429371019       -3.7357759757       -1.1768813706
 S          1.2250788697       -1.0169805919       -0.6839738254
 C          2.8689014656       -0.5800735034       -0.2810005620
 C          3.7569149653       -1.6689832856       -0.3309147052
 C          5.1263696627       -1.4718072838       -0.1122197305
 C          5.6294050125       -0.2090375767        0.1138011868
 C          4.7558392219        0.8753517451        0.1700279171
 C          4.9437337066        2.2899738192        0.3431516763
 C          6.0615748138        3.0930262884        0.5229594444
 C          5.8805387021        4.4573407451        0.6560893577
 C          4.6092337904        5.0260786068        0.6123026332
 C          3.4795738995        4.2477965115        0.4363546539
 C          3.6587182660        2.8814930592        0.2985709041
 N          2.7093415506        1.8939056398        0.1229590793
 C          1.3360692616        2.0118174074        0.2261038154
 C          0.6409802335        1.1842858682        1.0845695615
 N         -0.6851011259        1.1867075061        1.1687295795
 C         -1.3585283393        2.0037019551        0.3085161910
 N         -2.7171835383        1.8114726220        0.1655560782
 C         -3.6242761451        2.7746813716       -0.2497694861
 C         -3.5168925163        4.1566039103       -0.2214584357
 C         -4.5948539236        4.8984455958       -0.6729018900
 C         -5.7549328573        4.2828808175       -1.1372517435
 C         -5.8790036627        2.9063889102       -1.1407976914
 C         -4.8129470294        2.1426100904       -0.6854453689
 C         -4.6158659298        0.7324014781       -0.5130908597
 C         -5.4061317654       -0.3686871907       -0.8240326156
 C         -4.9211139961       -1.6355917334       -0.5769713672
 C         -3.6831915295       -1.8122855477        0.0471524230
 C         -3.0611023310       -3.0572478543        0.4163981179
 C         -3.4865569651       -4.3623908707        0.1807572273
 C         -2.7076044068       -5.4192977294        0.6100926110
 C         -1.5118712225       -5.1985115039        1.2855270447
 C         -1.0784689926       -3.9107589328        1.5429574948
 C         -1.8539619688       -2.8531179973        1.1018729435
 S         -1.4763818704       -1.1516951677        1.3196760156
 C         -2.8912451958       -0.7019224468        0.4119967624
 C         -3.3283854537        0.5723521481        0.0642236255
 C         -0.6543565623        2.8919401647       -0.4883590316
 N          0.6720611433        2.9398691494       -0.5248358462
 C          3.3627185117        0.6823268469        0.0172302901
 H          0.7145189756       -5.8409872096       -1.4829646736
 H          3.1140043016       -6.2387896291       -1.1082889331
 H          4.6272720032       -4.3697594020       -0.5815451184
 H         -0.2074548884       -3.5524791049       -1.3414112490
 H          5.7898902384       -2.3217057565       -0.1501125108
 H          6.6897635161       -0.0551758406        0.2403049818
 H          7.0492529364        2.6588418030        0.5558552737
 H          6.7389678104        5.0972421025        0.7960564097
 H          4.5053759321        6.0953093508        0.7192259844
 H          2.4917575917        4.6788080770        0.3967622513
 H          1.1641848996        0.5374370564        1.7725183767
 H         -2.6352589604        4.6438041697        0.1651105569
 H         -4.5372226223        5.9761760238       -0.6575174377
 H         -6.5735450706        4.8946977118       -1.4850162431
 H         -6.7869115893        2.4317307891       -1.4799455202
 H         -6.3786549692       -0.2271667221       -1.2690946067
 H         -5.5043678946       -2.5031072723       -0.8437423343
 H         -4.4155322190       -4.5436317345       -0.3383441509
 H         -3.0301440627       -6.4319753995        0.4185888515
 H         -0.9145482077       -6.0375004271        1.6089177235
 H         -0.1518234933       -3.7270563417        2.0642750731
 H         -1.1681071903        3.5089991062       -1.2104922089
