  85
       -139.08234437
 C         -8.6736273332        0.2585859592       -1.2189467297
 C         -7.8088953652        0.0249407468        0.0164441249
 C         -8.6733117386       -0.2001716478        1.2535880789
 C         -6.8623873218       -1.1799974576       -0.2067073567
 O         -7.2697918894       -2.3197420076       -0.4169434196
 C         -5.5265430403       -0.6857095591       -0.1222036319
 C         -4.3220661499       -1.3741015022       -0.2447657896
 C         -3.1236641439       -0.7023744760       -0.1059048485
 C         -1.8704691463       -1.4536297727       -0.1079456790
 C         -0.8757588926       -1.1862391069        0.8405693516
 C          0.3350166139       -1.8390152270        0.7993657095
 C          0.5838207314       -2.7842778473       -0.1922285065
 N          1.8653158616       -3.3867584701       -0.2693562133
 C          2.9611919372       -2.6143577842       -0.6285441195
 C          2.8263201106       -1.2992598331       -1.0652064791
 C          3.9413119505       -0.5549265450       -1.4069867380
 C          5.2071723743       -1.1067623624       -1.3208670404
 C          5.3576343864       -2.4228178099       -0.9152472292
 C          4.2467340339       -3.1787691672       -0.5825829098
 O          4.4542083785       -4.4806005578       -0.2210936330
 C          3.3567152982       -5.2492690443        0.0606259919
 C          3.5761674707       -6.5796797706        0.3725118167
 C          2.5093992794       -7.4026539288        0.6949710104
 C          1.2251402971       -6.8868584737        0.7176070483
 C          0.9969830668       -5.5582384565        0.4053249793
 C          2.0541600884       -4.7228738622        0.0564037734
 C         -0.4138842625       -3.1045465312       -1.1068347604
 C         -1.6276787854       -2.4503721671       -1.0570374181
 C         -3.1177430435        0.7197838766        0.1085583260
 C         -1.8594767240        1.4622011947        0.1042850694
 C         -1.6100224825        2.4644006193        1.0461316735
 C         -0.3925807209        3.1119762543        1.0899458339
 C          0.6030465279        2.7773427866        0.1784795448
 N          1.8885843180        3.3732142279        0.2541216885
 C          2.0906388300        4.6941304441       -0.1194014154
 C          1.0453201811        5.5152771033       -0.5316895959
 C          1.2858451479        6.8287843597       -0.8944285671
 C          2.5706423100        7.3425913217       -0.8585224420
 C          3.6257978775        6.5333506030       -0.4695842747
 C          3.3941092872        5.2180220884       -0.1069375182
 O          4.4798781092        4.4607302623        0.2427512983
 C          4.2588071194        3.1720596366        0.6417269484
 C          5.3574526549        2.4263079140        1.0326698366
 C          5.1924727701        1.1228218536        1.4722047629
 C          3.9241334369        0.5731492697        1.5325440208
 C          2.8210433116        1.3081815793        1.1359891210
 C          2.9713162760        2.6105099648        0.6674973583
 C          0.3486650435        1.8268520821       -0.8061103078
 C         -0.8669522977        1.1824421190       -0.8430294729
 C         -4.3109409785        1.3994211144        0.2550011446
 C         -5.5205804371        0.7191304700        0.1408447574
 C         -6.8523354592        1.2225669607        0.2357338249
 O         -7.2502688450        2.3646468773        0.4508706874
 H         -9.3094776781       -0.6065590622       -1.3915325853
 H         -9.2970621190        1.1372142891       -1.0706651608
 H         -8.0477992576        0.4155771295       -2.0955527184
 H         -9.2886258255        0.6778109310        1.4354785129
 H         -9.3170377791       -1.0632110209        1.1011209088
 H         -8.0474078754       -0.3781087551        2.1259962715
 H         -4.3393270182       -2.4430421646       -0.3961985369
 H         -1.0682828052       -0.4656035501        1.6201893143
 H          1.1014548349       -1.6242604715        1.5301706024
 H          1.8407305253       -0.8674911508       -1.1337962495
 H          3.8170403964        0.4627195933       -1.7435102981
 H          6.0755709862       -0.5220838791       -1.5783445242
 H          6.3286346304       -2.8874994688       -0.8558242182
 H          4.5896018075       -6.9473085816        0.3618196806
 H          2.6862407620       -8.4387734995        0.9352193229
 H          0.3906278282       -7.5172283270        0.9820875822
 H         -0.0042131431       -5.1581543535        0.4363074133
 H         -0.2216468439       -3.8459689391       -1.8686573793
 H         -2.3875208062       -2.6782984451       -1.7894282514
 H         -2.3685074754        2.7036524767        1.7762227952
 H         -0.1960550041        3.8606199693        1.8435734220
 H          0.0443355956        5.1151236561       -0.5712108934
 H          0.4608671849        7.4488333906       -1.2085551502
 H          2.7570698982        8.3670215476       -1.1386060811
 H          4.6391581982        6.9004979250       -0.4446041952
 H          6.3304268658        2.8887824965        0.9905050901
 H          6.0516367370        0.5465522432        1.7753984454
 H          3.7883690602       -0.4349495628        1.8920511031
 H          1.8331375769        0.8790460043        1.1850712924
 H          1.1136513830        1.6018929978       -1.5353709958
 H         -1.0644590808        0.4585756233       -1.6183473504
 H         -4.3205816372        2.4684663663        0.4062224083
