85
 energy: -139.140854265967 gnorm: 0.000047418090 xtb: 6.7.1 (edcfbbe)
C           -8.56777527960102        0.55264116647436       -1.11969648419992
C           -7.69725019561443       -0.00547385698938        0.00636525601163
C           -8.56413741650209       -0.56498148507905        1.13464762542435
C           -6.75191009017996       -1.09489924566280       -0.53303485148414
O           -7.14544597803516       -2.14617431315416       -1.05637114796418
C           -5.41709036591383       -0.64623642641280       -0.31229668330077
C           -4.20636138520333       -1.26834401471594       -0.61142266674490
C           -3.00793931771382       -0.65887350297785       -0.29347141642664
C           -1.75856790216987       -1.38973721157244       -0.50819870762101
C           -0.76165737877973       -1.41979403360170        0.47330327785253
C            0.42010743812247       -2.09750242205978        0.26448687653187
C            0.63360397695751       -2.76954427446755       -0.93573410992972
N            1.86400780751340       -3.43860093996082       -1.16819577889643
C            3.02670052667367       -2.70986952897599       -1.37120212078645
C            3.04419905725371       -1.31609437986783       -1.35264297257075
C            4.22350807401517       -0.62564168342287       -1.56392051770103
C            5.40610211436329       -1.30796640740687       -1.80130683484868
C            5.40600562229801       -2.69195371141445       -1.84144390120848
C            4.22843276269417       -3.39252187083799       -1.63391902075813
O            4.28834803135713       -4.75598319113340       -1.70733971642102
C            3.13400885795715       -5.45954926773803       -1.50619400527142
C            3.20963041565519       -6.84124874428176       -1.57551864084661
C            2.07770275303266       -7.60931996383367       -1.36058450389657
C            0.87206260448857       -6.99252864802550       -1.06485095180787
C            0.78682354116155       -5.61414084884744       -0.99583369606976
C            1.91042119495360       -4.82298907218490       -1.22934748268066
C           -0.36056522959923       -2.77829743881146       -1.90944307931583
C           -1.54152874108366       -2.09939177821933       -1.69307569360989
C           -3.00787476638891        0.64736580150749        0.30777973659292
C           -1.75867687092152        1.37872739975616        0.52164022040663
C           -1.54234857331520        2.09170499565840        1.70468673466292
C           -0.36247274634736        2.77318464740557        1.91893417950204
C            0.63158294785216        2.76335603816123        0.94512647740288
N            1.86044843297742        3.43629933172578        1.17476731322716
C            1.90378120154289        4.82104694389308        1.22953541932206
C            0.77803806645735        5.60864349021766        0.99433338554411
C            0.86025376191485        6.98749764818573        1.05731580389356
C            2.06498420394886        7.60831278922654        1.34828266906678
C            3.19899977126926        6.84373814245312        1.56470522199123
C            3.12636563297987        5.46159042886208        1.50165732642334
O            4.28258661107507        4.76155651996795        1.70441916596740
C            4.22504298557746        3.39752641979626        1.64038067309127
C            5.40376118267777        2.70034932397300        1.85273780640454
C            5.40618093274730        1.31611659106971        1.82184911041091
C            4.22486516029006        0.63021520903339        1.58842948350898
C            3.04441620955833        1.31726018085295        1.37243005108063
C            3.02451220265552        2.71107843642956        1.38215377269743
C            0.41940571404924        2.08678485328871       -0.25276921233514
C           -0.76148911765549        1.40699782810847       -0.45967841257863
C           -4.20641744971428        1.25699714107985        0.62521086413349
C           -5.41709402264989        0.63513369398380        0.32549763839783
C           -6.75197865505047        1.08454458262074        0.54464962760755
O           -7.14550897668612        2.13663515171859        1.06631791187894
H           -9.19371311861521       -0.23861632032344       -1.52841885809880
H           -9.19920986517387        1.35226965858694       -0.73658926825302
H           -7.94292500515505        0.95222099305801       -1.91781442297517
H           -9.19152152925771        0.22486464632493        1.54387563008235
H           -9.19403912016134       -1.36670201194258        0.75338279627916
H           -7.93663568085982       -0.96210908202027        1.93191706103205
H           -4.22463204536848       -2.25603294760242       -1.05103041936146
H           -0.93234410166662       -0.92185497231153        1.41525829519806
H            1.17947765318412       -2.12164350505693        1.03188888720165
H            2.12608214430229       -0.78049755910451       -1.17451488374104
H            4.21791264561570        0.45223212880484       -1.54204945868696
H            6.32511226115405       -0.76773824015626       -1.96223399234158
H            6.30643277692287       -3.25193212711396       -2.03712587751742
H            4.16424683218574       -7.29186422481043       -1.79550321449396
H            2.14145676242525       -8.68420944751739       -1.41704489082831
H           -0.01046320421097       -7.58568355625883       -0.88293479427491
H           -0.15222444321742       -5.14120444675747       -0.75670774066483
H           -0.19590746382924       -3.30538931227613       -2.83772273279878
H           -2.30009950242489       -2.08917028434063       -2.46141567552749
H           -2.30076577730847        2.08261993870416        2.47318956042008
H           -0.19866307299663        3.30344047099393        2.84556782519068
H           -0.16034308552694        5.13258392153964        0.75882791116202
H           -0.02395550324120        7.57784827193889        0.87444585642942
H            2.12636262152302        8.68358001740522        1.39996170278329
H            4.15298133692412        7.29746043602781        1.78104573421287
H            6.30319927496236        3.26312917016458        2.04489460578297
H            6.32603405740990        0.77853254305975        1.98675404516265
H            4.22113548820066       -0.44778911673198        1.57361855280892
H            2.12722315109618        0.77903603151821        1.19752110887032
H            1.17892464915883        2.10920448234476       -1.02009471775666
H           -0.93140385145102        0.90626663737088       -1.40027549536923
H           -4.22479136073811        2.24477234575008        1.06461496062825
