85
 energy: -139.194509487276 gnorm: 0.000064069204 xtb: 6.7.1 (edcfbbe)
C           -8.46095613612279        0.13365116900413       -1.25324420433636
C           -7.58777853894443        0.00173169621897       -0.00020349342469
C           -8.46113362015657       -0.12978277906112        1.25275433456586
C           -6.65390909504225       -1.20379668470876       -0.12724529604504
O           -7.00255860811394       -2.35659045557274       -0.24888470805680
C           -5.27440602483158       -0.69582962797801       -0.07466833825282
C           -4.08301344979656       -1.39460343994333       -0.14560987702549
C           -2.87546507652481       -0.70113488655289       -0.06761798214730
C           -1.61622762109086       -1.46371366115706       -0.11330376172889
C           -0.61303238363059       -1.25549206698702        0.83225878037234
C            0.57563977313847       -1.95278476486322        0.75872011526464
C            0.78509884250589       -2.87274337659471       -0.26440532011244
N            2.02078956682974       -3.55523637954430       -0.35994535501061
C            3.17533693075077       -2.86461238618881       -0.73084769653925
C            3.15841422096989       -1.51255696786208       -1.05026841221013
C            4.32198003549866       -0.85717890747000       -1.42422362031348
C            5.51796204721654       -1.54219077280339       -1.49012131256900
C            5.54824001851090       -2.89777670818994       -1.19283961973375
C            4.39078073401162       -3.55624477367219       -0.82273524453574
O            4.49323061451481       -4.90498118459970       -0.56462357056837
C            3.33537310271000       -5.57672031004421       -0.24143244507716
C            3.44114783894649       -6.93561877796043       -0.01316331450784
C            2.32124991614585       -7.67565738344709        0.34111453112647
C            1.10204890844412       -7.04282987744914        0.47496760601170
C            0.99042097061710       -5.67956002122094        0.24526649767709
C            2.09740163426308       -4.92878010356261       -0.13039714087596
C           -0.22294423609576       -3.10931131023042       -1.19284713074692
C           -1.41449787496158       -2.41514151396306       -1.11122573850113
C           -2.87515260515075        0.70244221419047        0.06749103064534
C           -1.61558005262248        1.46445710446973        0.11327591494726
C           -1.41350419929646        2.41577784896204        1.11122918846910
C           -0.22165397919468        3.10942727038893        1.19294620512761
C            0.78634340300759        2.87243239282476        0.26456516366011
N            2.02233688920219        3.55436174294151        0.36017944650511
C            2.09963397316057        4.92785050061675        0.13053824738758
C            0.99298148696372        5.67920398210529       -0.24494268565122
C            1.10528834551226        7.04240820274777       -0.47469965181928
C            2.32484884281142        7.67459376980373       -0.34108825696549
C            3.44442141103305        6.93397332874585        0.01300376114248
C            3.33797011594928        5.57513591935255        0.24132404358595
O            4.49553618786479        4.90278561622973        0.56429432420567
C            4.39238240531880        3.55415497132090        0.82268020525988
C            5.54951763359561        2.89512239492173        1.19279393817070
C            5.51853299097674        1.53959852174221        1.49028807919026
C            4.32217815932381        0.85521829380943        1.42459557371019
C            3.15893151681044        1.51116769958261        1.05065188477795
C            3.17655717150718        2.86316568057522        0.73102566068037
C            0.57655682775349        1.95257580342179       -0.75858537095505
C           -0.61241304165695        1.25580410735844       -0.83222031868579
C           -4.08238790667648        1.39646309706299        0.14540131280747
C           -5.27409353679065        0.69823281289240        0.07439101352402
C           -6.65336537698202        1.20682940869189        0.12691801509153
O           -7.00149290997672        2.35977891765868        0.24858206099219
H           -9.09075123856626       -0.74713232869682       -1.35463374568199
H           -9.08851203186454        1.01796358654993       -1.17048563329334
H           -7.84181040394433        0.22583028239462       -2.14425310695107
H           -9.09052748795785        0.75129386244731        1.35408505616366
H           -9.08909212426809       -1.01380394016011        1.16993879532469
H           -7.84211143885447       -0.22224862400551        2.14381961107038
H           -4.09293350966760       -2.47009323921123       -0.23953227214245
H           -0.77256315977860       -0.55495947380021        1.63735903066907
H            1.35165362300280       -1.78842957858054        1.49119359515722
H            2.22792832946495       -0.96945363506480       -1.00580133588536
H            4.28529490409423        0.19496511978729       -1.65970920397551
H            6.42675390670857       -1.03595827820626       -1.77488633523852
H            6.46453863239414       -3.46473447900063       -1.24653373943376
H            4.41124233290325       -7.39713695511003       -0.11296678935858
H            2.41423079469220       -8.73592974022538        0.51634044297609
H            0.22531711015254       -7.60279611210711        0.76258373896778
H            0.03527258864184       -5.19282287853651        0.36498131315849
H           -0.06340481257274       -3.83027544559026       -1.98087553408108
H           -2.18379451496056       -2.58521067303595       -1.84978662999074
H           -2.18278107504084        2.58616715821817        1.84973745027225
H           -0.06185335273063        3.83030214982653        1.98100297432658
H            0.03755585856406        5.19296738449375       -0.36447634536603
H            0.22880075648894        7.60283063869255       -0.76217191136375
H            2.41835448822355        8.73481055344378       -0.51636859448247
H            4.41478135510562        7.39497878092489        0.11260387155728
H            6.46612891623435        3.46159173492601        1.24630771751602
H            6.42707485943909        1.03292251079908        1.77506273911689
H            4.28494655863674       -0.19686854983563        1.66025048450956
H            2.22814542479940        0.96856436938667        1.00635473102909
H            1.35255980682599        1.78789101641040       -1.49099656720829
H           -0.77219356749372        0.55534626283271       -1.63733584970325
H           -4.09182177089771        2.47195717404002        0.23932397384283
