108
 energy: -157.626992994065 gnorm: 0.000067900036 xtb: 6.7.1 (edcfbbe)
C           -0.60775685398725        5.27946957476745        3.15818519491612
C            0.39173596357735        4.73550117149321        2.13660102528553
C            1.83627633793602        4.92204123715847        2.60647778342334
C            0.21242439678630        5.38941328914377        0.78731879543922
C            0.23694301855834        6.77185395429050        0.66490771905549
C            0.07855500653177        7.37569481885196       -0.56717517708334
C           -0.09701856278726        6.60560478508075       -1.70038855993982
C           -0.10652418468155        5.21968978994156       -1.62387475070332
C           -0.30524203189467        4.38361052152798       -2.86539950441348
C            0.69689634672901        4.75723641607365       -3.95831577140597
C           -1.74926741486882        4.52889401439206       -3.35117192357592
C            0.04471048411961        4.63096677547748       -0.36988890505681
N            0.02962329505215        3.20048252109147       -0.26515783919226
C           -1.21796235649939        2.59624328035740       -0.19576605042723
O           -2.23851283186088        3.27666073863736       -0.22652357028667
C           -1.21226884766768        1.15274011985043       -0.07446121135846
C           -2.43321203336485        0.46195720367021        0.00341237440016
C           -2.43692976665898       -0.91295053879857        0.10509388233167
N           -3.67435757717888       -1.61380528032790        0.18500940160757
C           -4.10610785504576       -2.32397631036555       -0.91432275723912
C           -3.34306477191666       -2.30696716871823       -2.09124905361445
C           -3.73722973599341       -3.02225633529931       -3.19891963302227
C           -4.90874048716684       -3.76211441670003       -3.16225773747332
C           -5.68014242867899       -3.75795217254521       -2.01471045691420
C           -5.30812192336358       -3.04752926304134       -0.88198853982832
C           -6.20798463422350       -3.05340630587814        0.33496186932823
C           -7.57443420339285       -2.46542550229069       -0.06625771827146
C           -6.37505132893006       -4.50479742384689        0.82382588095452
C           -5.63587165953867       -2.22514826689179        1.46550672146755
C           -6.33174701774720       -2.12611001435335        2.66259222813986
C           -5.84442947345525       -1.40198990686383        3.73453502799774
C           -4.61837421024407       -0.76417148961250        3.62553393556430
C           -3.90653116060959       -0.84356552902508        2.45076766033943
C           -4.40749072312600       -1.55638886847386        1.35195838362631
C           -1.24479255066434       -1.64047128704328        0.14853475175311
C           -0.00834499118618       -0.97565071458137        0.08493859676324
C            1.21545650832279       -1.66557410343406        0.11357730007113
C            2.42081613157377       -0.96291245829865        0.03306315962168
N            3.64508099980505       -1.68857752481253        0.07940770179114
C            4.42364219464908       -1.62628158671773        1.21662551642398
C            3.98173427693785       -0.88201279784021        2.31997165070967
C            4.74068398555338       -0.79624158627182        3.46440967285590
C            5.95570102081077       -1.45959706230748        3.53875620775257
C            6.38407437331484       -2.21566558057612        2.46375542726771
C            5.64001911590784       -2.32134452132871        1.29655301270037
C            6.14848065836476       -3.18570223358124        0.16266811780401
C            7.51348017920876       -2.64138375240619       -0.30036947791649
C            6.29673819425761       -4.63117085687048        0.67457487791918
C            5.20444963810713       -3.17963846230625       -1.02028349830022
C            5.51730940105348       -3.91915096548651       -2.15229534636943
C            4.70512027582936       -3.92358037970459       -3.27131515824649
C            3.55261737592905       -3.15366744017491       -3.28008019578794
C            3.21665432249431       -2.40958507756262       -2.17220463650098
C            4.01997141630196       -2.42710247046776       -1.02235044236412
C            2.44184580056090        0.41148544919718       -0.07370946695773
C            1.23373336620061        1.12692456723852       -0.11536194755248
C            0.00437443476793        0.44431985155760       -0.03313420254806
C            1.26574706360228        2.56944370460297       -0.24207651180272
O            2.29856261010619        3.22746830856266       -0.31716445542724
H           -0.52189573231043        4.72833854408187        4.09296740888599
H           -0.42775509532368        6.33101675359962        3.36601150453990
H           -1.62221610601943        5.16926931514930        2.78121926039684
H            0.20673222508961        3.66088698411290        2.03689712352443
H            2.51794599158018        4.51709618025178        1.86174649136582
H            2.06218580810786        5.97688495727005        2.74431697818104
H            1.99804361858954        4.40521643344414        3.55077767608032
H            0.37915241956609        7.38465571655677        1.54214030011972
H            0.09206400910896        8.45355327016897       -0.64484756249447
H           -0.22546346336514        7.08981281731566       -2.65655481750634
H           -0.13907637047358        3.33100497744010       -2.61378999208844
H            0.59847051433518        4.07632681131521       -4.80181700368394
H            0.53086023919200        5.76944825428890       -4.31783581145994
H            1.71157427417148        4.68820566069506       -3.57230217610906
H           -2.43313090217184        4.24640615431238       -2.55377606134173
H           -1.95675001756921        5.55779232600970       -3.63605587278135
H           -1.92673455170384        3.88656404790965       -4.21183650602696
H           -3.35178165844015        1.02624443949510       -0.02514636629483
H           -2.44085444739840       -1.71822577389708       -2.12778083831122
H           -3.13467772522552       -2.99795397630642       -4.09397093203915
H           -5.22631986541251       -4.32751646906151       -4.02474912406895
H           -6.59881106064039       -4.32424429885548       -2.00903927308016
H           -8.25671159925149       -2.46146868146979        0.77887483938515
H           -8.02579818404360       -3.04540849147722       -0.86611665154338
H           -7.44927976119860       -1.44131312283341       -0.41211338967338
H           -7.03078495291369       -4.54918078865454        1.68849582906454
H           -6.79925299771674       -5.12959287411332        0.04313019197612
H           -5.40701111820616       -4.91507296723385        1.10513266385697
H           -7.28188679566752       -2.62698046043667        2.76785104388901
H           -6.41330212981413       -1.34187356036909        4.64947886484851
H           -4.21732464984611       -0.20569618271925        4.45720962835143
H           -2.95099112245078       -0.35122672520283        2.37053846308938
H           -1.27461903015713       -2.71553983590881        0.24352459850658
H            1.22588647556766       -2.74081943703102        0.21074143675670
H            3.03463606146650       -0.37006576929629        2.26771421131758
H            4.38478747242885       -0.21299436068654        4.29961267687607
H            6.56121737622247       -1.39483029617333        4.42954111587610
H            7.32578981246591       -2.73687200534711        2.54246007340437
H            8.22768955614140       -2.64189644630508        0.51794720382023
H            7.91847770210788       -3.24626030062343       -1.10656006837366
H            7.40198028205329       -1.62009256936928       -0.65901258143716
H            5.33033705836265       -5.00929485613003        1.00267226521797
H            6.67240872996745       -5.28255346789009       -0.10924266482796
H            6.98539502559103       -4.67622686469949        1.51324017022388
H            6.42110502766272       -4.50868047698861       -2.16899207245009
H            4.97692401676730       -4.51207539557907       -4.13398869349145
H            2.91955990203439       -3.12833017668619       -4.15378648039137
H            2.32958566006032       -1.79743063014375       -2.18820651516457
H            3.37030025331112        0.95684194711397       -0.13374359769221
