108
 energy: -157.682340785886 gnorm: 0.000144048843 xtb: 6.7.1 (edcfbbe)
C           -0.88087004398832        4.96705875777094        3.51310587082479
C            0.20143644219353        4.52354923949082        2.52750014878632
C            1.60392782083071        4.72157534780883        3.10759269730414
C            0.08479920144508        5.26542194551617        1.21732723960562
C            0.08904908185735        6.65360104316738        1.19201421746781
C           -0.01503530894584        7.33976482823301       -0.00213912889565
C           -0.11540404281683        6.65001541066983       -1.19453555917626
C           -0.10444499876329        5.26182698629843       -1.21625596331928
C           -0.21579893379479        4.51613483452485       -2.52469846540729
C            0.86896551833045        4.95961444347643       -3.50763183663769
C           -1.61681827369079        4.70893591706615       -3.10996794316039
C           -0.00842114411402        4.59220976999662        0.00141402781337
N           -0.00596053416276        3.15213191096288        0.00319614240672
C           -1.24483538517313        2.53478134635344       -0.05362825181639
O           -2.26553041948542        3.18721650731330       -0.09295078568457
C           -1.22756162417207        1.06007259106100       -0.06344652633018
C           -2.41483833506995        0.36661966639700       -0.13103222884623
C           -2.41835736547297       -1.03895406747378       -0.13841064823811
N           -3.65043712384255       -1.72833966339247       -0.20714948281072
C           -4.39897983050943       -1.64488025724432       -1.37608689833887
C           -3.88744640036749       -0.95629144535278       -2.47991971328371
C           -4.61095572166337       -0.84805201945078       -3.64873389921904
C           -5.85703562026040       -1.43977931991598       -3.74430671570234
C           -6.34959422948298       -2.15158443090890       -2.66698405616708
C           -5.64227695718662       -2.27564551447730       -1.47851901985953
C           -6.22587132046549       -3.10279363923705       -0.34996428095487
C           -7.57400330340442       -2.48826414990540        0.06868873715972
C           -6.42801490923378       -4.54352413892529       -0.85399147268776
C           -5.31395973438753       -3.13159648687386        0.86108585393899
C           -5.70539896861494       -3.84302640617180        1.98764396750793
C           -4.94083788191895       -3.87747986552500        3.13818535781119
C           -3.75693580198749       -3.16439468067877        3.18152524201204
C           -3.34302832290777       -2.45259381501359        2.07550513809764
C           -4.09697300866929       -2.44386749820874        0.89843472260443
C           -1.23010141209030       -1.73231126144482       -0.07519839186169
C            0.00035965128769       -1.05166784327588        0.00701254367483
C            1.23282627475474       -1.72836759519720        0.09015777871427
C            2.41959369200273       -1.03160374749500        0.14793262789331
N            3.65359956518078       -1.71700926465537        0.21259541330532
C            4.41677602143535       -1.61361576498248        1.37078659977179
C            3.91555658457251       -0.91332263231379        2.47203693421801
C            4.65433840773908       -0.78313597477856        3.62898008574752
C            5.90575162781884       -1.36488962837724        3.71580766900759
C            6.38750075831279       -2.09025779126800        2.64272705914329
C            5.66463958467568       -2.23637041374961        1.46613258092837
C            6.23676277243242       -3.07928834067866        0.34352110468388
C            7.57682421153508       -2.46662371650899       -0.10283930225899
C            6.45123464037605       -4.51086998348998        0.86816467504243
C            5.30919669645843       -3.13094514725981       -0.85472305448901
C            5.68923727449107       -3.85928555397566       -1.97443100765346
C            4.91138327433100       -3.91414995072267       -3.11514277198980
C            3.72568434378608       -3.20393449477148       -3.15594948469937
C            3.32288659895333       -2.47592546763656       -2.05639845331647
C            4.08958366923464       -2.44763016149297       -0.88784596401722
C            2.41142997064138        0.37407829989969        0.13703906353389
C            1.22197674429923        1.06380077482391        0.07056662112400
C           -0.00185622398162        0.36674419613196        0.00500075030827
C            1.23488821780702        2.53855154805580        0.05710911956445
O            2.25373489067851        3.19413875638452        0.09228126997338
H           -1.86515255144441        4.85637224366367        3.06317021227676
H           -0.83859644387409        4.35485719311126        4.41169168050284
H           -0.74801063415576        6.00578978080968        3.80292439189842
H            0.06069939479106        3.45211296120335        2.34760972276327
H            2.35187758451303        4.39267854077747        2.38933331804084
H            1.78132534652300        5.76998682410815        3.33385948910755
H            1.71875464825184        4.14476445839082        4.02308353259096
H            0.17222612221204        7.20459112245777        2.11595492019266
H           -0.01771063503319        8.41995626652286       -0.00353531691052
H           -0.20099841083769        7.19818761074156       -2.11993667173988
H           -0.07313686015784        3.44549937474560       -2.34164690722194
H            0.82983598879535        4.34663050638376       -4.40581096864147
H            0.73613539399547        5.99802836553761       -3.79854956226481
H            1.85197677496698        4.85009595814083       -3.05463421698909
H           -2.36626557670326        4.38151887774330       -2.39259541530984
H           -1.79565902899547        5.75594718196750       -3.34134273101551
H           -1.72764499467312        4.12793098529939       -4.02328277682237
H           -3.34478085303325        0.91389704365037       -0.17392515890569
H           -2.90905497666817       -0.50433466947964       -2.42586242396293
H           -4.19596985408160       -0.30448017522671       -4.48411340562786
H           -6.43548921622280       -1.35933915028485       -4.65174038345793
H           -7.31499636379100       -2.62504521974722       -2.76084799843753
H           -8.26360882513960       -2.45779981622643       -0.77020139964586
H           -7.42178039205417       -1.47122787744879        0.42510109867544
H           -8.03396444014648       -3.06541548200715        0.86591124885828
H           -6.85530183920793       -5.17066869578498       -0.07659984880872
H           -7.09413104854489       -4.56514279595307       -1.71185465538459
H           -5.47140720317920       -4.96914199476863       -1.15167095892898
H           -6.63788651981777       -4.38634072692808        1.97312345594586
H           -5.27315914499962       -4.44410047657267        3.99434935722647
H           -3.15336238091585       -3.15643603169134        4.07677104214657
H           -2.42567065398912       -1.88705344368320        2.13033320301175
H           -1.23757354134578       -2.81259448618214       -0.08026899644114
H            1.24317359040249       -2.80860775337630        0.09890433063380
H            2.93307657882519       -0.46949526125669        2.42569001626722
H            4.24710522357916       -0.23027641738120        4.46205794889124
H            6.49648164609139       -1.26667615504399        4.61352608179257
H            7.35687562903351       -2.55674980274998        2.73026244977972
H            8.27792739825842       -2.42153789762666        0.72577647165059
H            8.02766486376506       -3.05395885302706       -0.89781868414118
H            7.41611528798380       -1.45549644256650       -0.47207477608598
H            6.87211526634416       -5.14867988814814        0.09596736563284
H            7.12746873920712       -4.51585239446631        1.71833750332593
H            5.50007864377852       -4.93565074463920        1.18395515405360
H            6.62343504801458       -4.39967684629222       -1.96228165358284
H            5.23502045545050       -4.49361935731001       -3.96600337722033
H            3.11191864250865       -3.21075129531069       -4.04424659495900
H            2.40399711523202       -1.91288697899415       -2.11047330886928
H            3.33966064967488        0.92462584644569        0.17543524300790
