108
 energy: -157.626995403106 gnorm: 0.000176129211 xtb: 6.7.1 (edcfbbe)
C           -0.67738998950484        4.60659261889414        4.20433710522255
C            0.32216186444283        4.27846317713146        3.09459790070592
C            1.76738101371119        4.40198589412736        3.58278948547861
C            0.12133287774852        5.16626912413578        1.88993642512310
C            0.11602527793523        6.54781864763409        2.02441053572684
C           -0.06113003353668        7.36514904051322        0.92507037440026
C           -0.22534412299770        6.81383123819189       -0.33065444193536
C           -0.20509351928296        5.43768228509607       -0.51086110677131
C           -0.39011532674846        4.84137965617591       -1.88587912568280
C            0.60574549928465        5.42726653559679       -2.88766842749026
C           -1.83628730442584        5.04841389062122       -2.34197361073390
C           -0.03589747800863        4.63093759463707        0.61308069825054
N           -0.02420547468015        3.20617204787861        0.44722174183938
C           -1.26163776241478        2.57911281065131        0.39792962415659
O           -2.29296068534514        3.23391060015788        0.50909977805308
C           -1.23274025885045        1.14447635838003        0.19806857082827
C           -2.44263072549612        0.43390168115292        0.12439004519964
C           -2.42513523509622       -0.93230095445413       -0.05847611090329
N           -3.64793050214761       -1.65602307458087       -0.14106844720602
C           -4.44303248928386       -1.51637471572671       -1.26051333097403
C           -4.02851681240794       -0.68055093901903       -2.30745827430937
C           -4.80544333453946       -0.51603370383551       -3.43105835301757
C           -6.01149234204059       -1.19043977625920       -3.54178733950617
C           -6.41180711686818       -2.03727445519065       -2.52534107736164
C           -5.64923677680584       -2.22335962529408       -1.38028008607867
C           -6.12596365752656       -3.18812216884831       -0.31569201653062
C           -7.49801130751855       -2.71620339045194        0.20250346696683
C           -6.24619478005830       -4.59036984727483       -0.94244495779545
C           -5.16949581642497       -3.25575713971218        0.85517471719173
C           -5.45592879341056       -4.08794334241196        1.92834216613069
C           -4.63262071460512       -4.16297873222192        3.03665751904700
C           -3.49682180264552       -3.37094219609906        3.09646801954810
C           -3.18674999665977       -2.53635006262724        2.04700652160790
C           -3.99934063084268       -2.48288614554479        0.90473826834158
C           -1.22032254590094       -1.63093245056986       -0.18441009627127
C            0.00461462081808       -0.94566926496106       -0.12259418100467
C            1.23926512349997       -1.60802421704738       -0.22730397550062
C            2.43427612883528       -0.88663931010313       -0.14528952755534
N            3.66693117986355       -1.58798553984241       -0.26835804108161
C            4.07489623790315       -2.39588863985154        0.77159607901375
C            3.30694595057690       -2.45400359419293        1.94409125907195
C            3.67440780797128       -3.26983833271294        2.98977616432489
C            4.82426017385332       -4.03788026013739        2.89538989136198
C            5.60317122752812       -3.95832432008648        1.75572783472533
C            5.25839685936190       -3.14486070146628        0.68537442057843
C            6.16744650913678       -3.07142988488613       -0.52238600098289
C            7.54795588859469       -2.56426407562729       -0.06337455878343
C            6.29362942516948       -4.47849890253848       -1.13705458974762
C            5.62938515351941       -2.13014545585869       -1.57876464338689
C            6.34225917229803       -1.94287592367148       -2.75520146289724
C            5.88471144374134       -1.11693459609814       -3.76470426843597
C            4.67054288154295       -0.46521283906105       -3.61393413434913
C            3.94219256652151       -0.63121067847495       -2.45845079336430
C            4.41457400360348       -1.44608245849519       -1.41959777686822
C            2.43288032605578        0.48020584842890        0.03324947438259
C            1.21320600718939        1.16820284770971        0.15039624661692
C           -0.00502860216798        0.46560324088221        0.07391978153077
C            1.22212936563475        2.60384686540195        0.34540568583024
O            2.24410761642334        3.27955750024079        0.40727543425530
H           -0.57641778684889        3.89204007482923        5.01922121498571
H           -0.51101885703912        5.60350202035200        4.60419782433889
H           -1.69300758984721        4.55266261051820        3.81837893987099
H            0.15457831375698        3.23756529420771        2.79909480161730
H            2.44912286673971        4.15308157704256        2.77248725640825
H            1.97638110055190        5.41768852906437        3.91065068798207
H            1.94629526117109        3.72357378598561        4.41499655402743
H            0.24925585360537        6.99124711841819        2.99952345865434
H           -0.07114178215530        8.43885764287946        1.04776863936315
H           -0.36857409715209        7.46320296385544       -1.18100266096731
H           -0.20547599400931        3.76338740968740       -1.83241131345881
H            0.51748401030741        4.91429835680325       -3.84372067426553
H            0.42417250230686        6.48616148990525       -3.05232989174175
H            1.62147331449923        5.30294803523327       -2.51858369016108
H           -2.51550241321870        4.61236505450752       -1.61272317988092
H           -2.06204704810505        6.10829981302032       -2.43367502361999
H           -2.00182844747190        4.57255599511016       -3.30694575953801
H           -3.36931347163595        0.97733064339021        0.21977467714004
H           -3.08827975110535       -0.15955055926747       -2.22856374055409
H           -4.47030315255714        0.13744987882623       -4.22164166411928
H           -6.63114681079819       -1.06447982983190       -4.41613508460171
H           -7.34573268195093       -2.56716812112846       -2.63338411623450
H           -7.87993717828792       -3.39393142955725        0.96053422640100
H           -8.22129867271310       -2.66780432437947       -0.60629992462470
H           -7.40633837403576       -1.72493470411052        0.64188095287812
H           -5.27447277464988       -4.91820867716244       -1.30695263888071
H           -6.60016729381676       -5.31167984581373       -0.21149990674047
H           -6.94092008051318       -4.58294489186792       -1.77730617763711
H           -6.34721441357294       -4.69603595706274        1.90612699892877
H           -4.88356215147524       -4.82295509859148        3.85266879136510
H           -2.85657989148434       -3.39915335284726        3.96485537617039
H           -2.31310584668783       -1.90761654183484        2.10464121011055
H           -1.23301065237952       -2.69893019009879       -0.34231693605026
H            1.26651160193807       -2.67591953887008       -0.38400236482979
H            2.42231356605456       -1.84382315234833        2.02777709604471
H            3.06794420846995       -3.30210803101902        3.88194431889363
H            5.12015953129424       -4.68288161601361        3.70830731679714
H            6.50583618914555       -4.54772666462956        1.70606792894801
H            7.97332228050125       -3.22431784738928        0.68709350548051
H            8.23824498410691       -2.51072437070220       -0.90021068132396
H            7.45198918961753       -1.56974521717855        0.36766276258665
H            5.31585896802252       -4.83128014646234       -1.45969693764480
H            6.95528787710583       -4.46678216219676       -1.99830306025868
H            6.69105314206596       -5.18305879886223       -0.41213453947161
H            7.28201450395728       -2.45499928995564       -2.89403706469633
H            6.46661181940979       -0.98948225909728       -4.66441615063816
H            4.29127017366779        0.17176603988509       -4.39802284527152
H            2.99558470060112       -0.12779795552600       -2.34770257917040
H            3.35210756023889        1.04113090214380        0.09250079451244
