108
 energy: -157.682356518873 gnorm: 0.000041125312 xtb: 6.7.1 (edcfbbe)
C           -0.64693659535351        4.57787447405973        4.11463870514565
C            0.36279135260582        4.26109007151732        3.01036185015006
C            1.80274629420720        4.42340452830821        3.50316632287061
C            0.14048169176152        5.13485735308136        1.79906963252604
C            0.13142991954568        6.51789373798043        1.92137151809538
C           -0.06749562330648        7.32458399391712        0.81808771010579
C           -0.25153335348339        6.76299430978190       -0.43027223587492
C           -0.23156606547652        5.38520455187435       -0.60020277763299
C           -0.43550351785581        4.78062076713328       -1.96904150493204
C            0.57263237788671        5.33836120846047       -2.97510925470375
C           -1.87638444831713        5.01760502318345       -2.42758378902097
C           -0.03874433198664        4.59226446038960        0.52886963023281
N           -0.02563643009744        3.16052445986124        0.37460293597386
C           -1.26128201831087        2.53488995492375        0.34138446982407
O           -2.28592529182451        3.17175842792341        0.45809598748131
C           -1.23572601551114        1.07253500685364        0.15249324201148
C           -2.42037750408043        0.37393602873564        0.09341999603097
C           -2.41669036712480       -1.01992659368318       -0.08902510215868
N           -3.64583138284267       -1.71441643158280       -0.14450919770287
C           -4.49974742863359       -1.47828260554032       -1.21685300400656
C           -4.09209174250886       -0.63738206732362       -2.25662891708123
C           -4.92203919018443       -0.37357493869363       -3.32565728318792
C           -6.17351065520340       -0.95850263191926       -3.38638614480863
C           -6.56355554107612       -1.82113287317598       -2.37969240802529
C           -5.74762440040145       -2.10373174359646       -1.29218279050058
C           -6.22267351495271       -3.09155530766502       -0.24503921233247
C           -7.52485207254100       -2.56128049949777        0.38230152373694
C           -6.47240407214301       -4.44737379175744       -0.93066884407038
C           -5.20063988529225       -3.28160893251269        0.85863508716894
C           -5.48444121662560       -4.15415316372263        1.90115545017284
C           -4.61708477608190       -4.34178265129878        2.96024944686322
C           -3.43725131994204       -3.62176789171304        2.99938416416690
C           -3.12931209937891       -2.75164093682418        1.97508163776266
C           -3.98702364428246       -2.58730776464785        0.88350066251092
C           -1.22250416053719       -1.69669704833499       -0.20449586342089
C            0.00640111332669       -1.01220868719557       -0.13324771964932
C            1.24532910181822       -1.67305416655141       -0.24338131835870
C            2.42916718452327       -0.97275304402872       -0.17058195797100
N            3.66879455561810       -1.64555791152766       -0.25891138712425
C            4.06251901197432       -2.49253638629007        0.77172555197750
C            3.24671972721882       -2.65239527010132        1.89562807199303
C            3.60764454483830       -3.49643988857018        2.92447035026263
C            4.79952456969846       -4.19417293369737        2.85706023207416
C            5.62490919184821       -4.01132767862806        1.76407760435350
C            5.28745790994063       -3.16485614467476        0.71610307860446
C            6.26471071249996       -2.97888419515504       -0.42813421094673
C            7.58002006335648       -2.41556359222088        0.14018808484632
C            6.51194192401612       -4.34333099392316       -1.09736535950206
C            5.73439126252924       -2.01918033707176       -1.47498304929954
C            6.50485304957469       -1.74288306489920       -2.59670534064123
C            6.06306532964713       -0.90546970336913       -3.60336617909488
C            4.80492478743986       -0.34000174665049       -3.50657633783956
C            4.01937565489798       -0.59812208670794       -2.40314785259756
C            4.47918182062832       -1.41386153590954       -1.36519403908453
C            2.41227966428820        0.42241335552691        0.00010056923284
C            1.21686332805408        1.09795072537147        0.09957771902705
C           -0.00414797614766        0.39565272676633        0.03901180667001
C            1.21977655847028        2.56307517673332        0.26895663933742
O            2.23441355473328        3.22489242514029        0.30941112165093
H           -0.52787192230827        3.87761128473415        4.93893722629966
H           -0.50634948246566        5.58395403897544        4.50020269182063
H           -1.66108470662653        4.49311972614783        3.73017256513140
H            0.22080849305654        3.21220061217706        2.72797160596375
H            2.49745569153659        4.18621310710350        2.70031728698485
H            1.98534921834186        5.44527079249149        3.82609704379151
H            1.99284484086656        3.75537410155777        4.34076008481122
H            0.27920777940898        6.96951351083362        2.89007330468375
H           -0.07899876248328        8.39871174282174        0.93187968778343
H           -0.41052458388046        7.40435793965791       -1.28327292126268
H           -0.27568456740408        3.69832123226643       -1.91192042153985
H            0.46806547584627        4.82582159551754       -3.92928771371494
H            0.41689399810014        6.40083371929061       -3.14089660707127
H            1.58669226774933        5.19017511552515       -2.61003534508113
H           -2.56980259239517        4.60575263709939       -1.69748117742977
H           -2.07678711569069        6.08102714090029       -2.53120494989826
H           -2.05101618144023        4.53648132263621       -3.38783501263869
H           -3.35372744447633        0.90781711111355        0.19343820715453
H           -3.11115670867265       -0.18844051524734       -2.23252201662127
H           -4.58569052600592        0.28586509602283       -4.11147320184118
H           -6.83502710260041       -0.75662057501470       -4.21472641312311
H           -7.53440150811020       -2.28765235734817       -2.44890800070842
H           -7.90760871212952       -3.25301183427003        1.12744689362592
H           -8.29070514069761       -2.41956716613437       -0.37507046854728
H           -7.33901541637291       -1.60414238133866        0.86595595881557
H           -5.54822120326885       -4.81358450249893       -1.37409918294755
H           -6.82564679907841       -5.18518010344812       -0.21578880669394
H           -7.21589809418682       -4.35393712170235       -1.71716491756965
H           -6.41292486667693       -4.70437792625806        1.89287494991282
H           -4.86705423633025       -5.03158292743579        3.75156264668931
H           -2.75433865422125       -3.73176798566541        3.82843616802843
H           -2.21359902605659       -2.18355414294202        2.02958846077349
H           -1.22333594542924       -2.76802894222601       -0.34360203652348
H            1.26271136800383       -2.74490131494669       -0.37734938760796
H            2.32200989313318       -2.10152507021804        1.97135473361653
H            2.95650502416331       -3.60358651805604        3.77908139036077
H            5.09094449210033       -4.86326343444544        3.65197983689221
H            6.56286035218616       -4.54441343026179        1.73281707015429
H            8.00265497391276       -3.08728003152311        0.88209065214810
H            8.31427477767844       -2.27453544535835       -0.64796817503779
H            7.39573198088196       -1.45318481012178        0.61392563975375
H            5.57840232736579       -4.73283898344800       -1.49941994152503
H            7.22436337870236       -4.25286705497629       -1.91245622367928
H            6.90352122777439       -5.06152629852968       -0.38246344092200
H            7.48050406635125       -2.19423353594335       -2.69356334645392
H            6.69009865244229       -0.70782755856615       -4.45910321145046
H            4.42889926182841        0.29980961256710       -4.29062334263049
H            3.03266980805151       -0.16456016634643       -2.34979790463961
H            3.33797478600368        0.97533536816888        0.05941875276204
