  108
       -157.62417903
 C         -0.6004586959        5.2614257754        3.1394247497
 C          0.3989847754        4.7143916789        2.1194304466
 C          1.8435641794        4.8983153301        2.5903059398
 C          0.2223028988        5.3673389569        0.7693759312
 C          0.2549895538        6.7493988267        0.6448129999
 C          0.1004808059        7.3521070003       -0.5883573913
 C         -0.0797982861        6.5812671090       -1.7204071011
 C         -0.0978508519        5.1955842832       -1.6417717409
 C         -0.3022457683        4.3582138850       -2.8814454132
 C          0.6979322267        4.7261574826       -3.9780661401
 C         -1.7472879539        4.5075625286       -3.3630800903
 C          0.0496997254        4.6079970886       -0.3867156747
 N          0.0293900333        3.1782108178       -0.2795130948
 C         -1.2195168565        2.5764211414       -0.2086145912
 O         -2.2389223556        3.2587720002       -0.2433063812
 C         -1.2164853065        1.1332967302       -0.0814146454
 C         -2.4377496202        0.4452095091       -0.0017261823
 C         -2.4421528734       -0.9301526272        0.1103859808
 N         -3.6842375686       -1.6254643567        0.1905920295
 C         -4.1349157584       -2.3097140044       -0.9163558617
 C         -3.3775621188       -2.2894326372       -2.0970872526
 C         -3.7921050184       -2.9786565360       -3.2136405729
 C         -4.9779249687       -3.6959903385       -3.1818241234
 C         -5.7416709262       -3.6974417409       -2.0290721112
 C         -5.3491756537       -3.0134532118       -0.8871276630
 C         -6.2392346107       -3.0256523637        0.3369317782
 C         -7.5963376673       -2.4011806182       -0.0405183295
 C         -6.4333507738       -4.4829910043        0.7975527582
 C         -5.6415521335       -2.2321282562        1.4789678977
 C         -6.3228433852       -2.1457466298        2.6852419852
 C         -5.8124143573       -1.4503101947        3.7655620976
 C         -4.5785259585       -0.8277219609        3.6550244990
 C         -3.8808380907       -0.8945362228        2.4711841387
 C         -4.4038063422       -1.5802505063        1.3651033723
 C         -1.2536660434       -1.6584192562        0.1608825566
 C         -0.0156866963       -0.9962050691        0.0930621679
 C          1.2076017660       -1.6872063467        0.1314619334
 C          2.4115397281       -0.9873302013        0.0473744514
 N          3.6395976046       -1.7081927825        0.0972535958
 C          4.4116617576       -1.6399218262        1.2371948034
 C          3.9471331839       -0.9176806805        2.3462456342
 C          4.6998708113       -0.8243612979        3.4940231443
 C          5.9312744668       -1.4575234607        3.5658794336
 C          6.3826785856       -2.1916355286        2.4849676356
 C          5.6452589768       -2.3048405414        1.3143961537
 C          6.1794580982       -3.1415672868        0.1718818513
 C          7.5279106973       -2.5515371702       -0.2839892612
 C          6.3709077176       -4.5874526408        0.6682711207
 C          5.2364939161       -3.1505705193       -1.0118597898
 C          5.5693878389       -3.8720393427       -2.1497253087
 C          4.7580112415       -3.8887168921       -3.2692319370
 C          3.5845742531       -3.1507173804       -3.2720506568
 C          3.2285542801       -2.4246278434       -2.1587323927
 C          4.0329520751       -2.4281878324       -1.0092630433
 C          2.4356730734        0.3872714657       -0.0714830094
 C          1.2296603214        1.1033029597       -0.1193642627
 C         -0.0009913841        0.4228031474       -0.0348418169
 C          1.2644804790        2.5448296878       -0.2539407838
 O          2.2986358758        3.2006228872       -0.3332190967
 H         -0.5142685590        4.7131930552        4.0758848330
 H         -0.4208478533        6.3137313630        3.3438306748
 H         -1.6149602963        5.1496391298        2.7629738848
 H          0.2119714099        3.6400586013        2.0206741270
 H          2.5248921389        4.4914807144        1.8462728273
 H          2.0716860370        5.9527192277        2.7279237730
 H          2.0035051818        4.3815221073        3.5349222794
 H          0.4007922610        7.3627456736        1.5210864352
 H          0.1207571027        8.4297104169       -0.6678327182
 H         -0.2046087735        7.0648759975       -2.6773684846
 H         -0.1390872013        3.3054966101       -2.6282474169
 H          0.5915433989        4.0463929295       -4.8214702234
 H          0.5374064522        5.7395862181       -4.3365871589
 H          1.7136615210        4.6499903004       -3.5963196462
 H         -2.4295652132        4.2252432449       -2.5642367392
 H         -1.9529653131        5.5375681986       -3.6452930041
 H         -1.9285712551        3.8673118609       -4.2244752983
 H         -3.3561619733        1.0092822537       -0.0359377005
 H         -2.4632130304       -1.7195288118       -2.1279336784
 H         -3.1941279376       -2.9523150646       -4.1117351806
 H         -5.3116003898       -4.2406240013       -4.0515627997
 H         -6.6706376180       -4.2464886854       -2.0269064776
 H         -8.2713778046       -2.3999105047        0.8104807209
 H         -8.0658720102       -2.9556614467       -0.8479306681
 H         -7.4525744279       -1.3732660941       -0.3671532655
 H         -7.0811608663       -4.5310835964        1.6679267547
 H         -6.8793247568       -5.0817653588        0.0087119570
 H         -5.4721423671       -4.9205161939        1.0598599089
 H         -7.2797572817       -2.6335084423        2.7913322037
 H         -6.3699128010       -1.4002973760        4.6881497571
 H         -4.1609592768       -0.2905903034        4.4926475623
 H         -2.9198003698       -0.4136539269        2.3881424175
 H         -1.2851702419       -2.7328826892        0.2618386202
 H          1.2161294776       -2.7617287394        0.2362821916
 H          2.9878292865       -0.4288624877        2.2943649877
 H          4.3273145027       -0.2580156138        4.3335734388
 H          6.5323099448       -1.3856372292        4.4591462670
 H          7.3377361534       -2.6883246536        2.5615227256
 H          8.2415581462       -2.5404444549        0.5347578884
 H          7.9505724249       -3.1347592928       -1.0970329600
 H          7.3863186290       -1.5299003730       -0.6307894744
 H          5.4162818555       -4.9976966439        0.9921638492
 H          6.7658888227       -5.2190724770       -0.1221482556
 H          7.0607023174       -4.6207568662        1.5065165144
 H          6.4885586232       -4.4371795141       -2.1707594012
 H          5.0458784243       -4.4623399387       -4.1366918476
 H          2.9508118715       -3.1364697018       -4.1454927148
 H          2.3242600232       -1.8381576171       -2.1689498373
 H          3.3655609261        0.9296326728       -0.1348452369
