42
 energy: -77.033798040270 gnorm: 0.000181450102 xtb: 6.7.1 (edcfbbe)
N            8.10751027763654        0.77039719397217       -0.08603458368899
C            6.96324878665849        0.73372451139230       -0.05485104212828
C            5.54798049668296        0.68806034223487       -0.00679779246452
C            4.91769292700166        1.95548130847439       -0.05151125922902
N            4.42765697520462        2.98564216035210       -0.15415521673148
C            4.89261275851478       -0.49484584433937       -0.01205334230323
C            3.45639440954676       -0.66267903009968        0.05568250854050
C            2.83014469679756       -1.67361505216369       -0.68536012378359
F            3.60134652308921       -2.46284844980771       -1.45518204815749
C            1.46842741321817       -1.87088050676523       -0.68974366926832
C            0.64656995045785       -1.05241609493524        0.08569931592263
C           -0.80397418827137       -1.27215449696708        0.11032328647466
C           -1.27141062871283       -2.56566303361298        0.33729142522813
C           -2.61834134833118       -2.83371660500612        0.44483834297255
C           -3.55975892771221       -1.81016215048878        0.31914744253584
C           -4.95781788919706       -2.05248613493314        0.44840585197903
C           -5.85840110783762       -1.05109642222801        0.31839542465713
C           -5.44123853787486        0.28310938648369        0.03920696155965
C           -6.35350177660026        1.33022652602843       -0.10216131155025
C           -5.91990594594306        2.61380192581393       -0.37955408885564
C           -4.57173658539004        2.88345967042241       -0.52580853067348
C           -3.62413749460862        1.86749875453542       -0.38981610900835
C           -2.22910928628963        2.10154742535319       -0.55594331514784
C           -1.32300637744554        1.10723816766103       -0.40550028824893
C           -1.72257467593273       -0.21948500161922       -0.06430756603544
C           -3.11005055456119       -0.49319315642156        0.05126126375329
C           -4.05631988915583        0.55070038626931       -0.09884646901068
C            1.23907624607155       -0.07121482474452        0.88054323066493
C            2.60473189460743        0.10879653523190        0.85682938481552
F            3.13968074457777        1.00820652967552        1.69819892208066
H            5.47438877191744       -1.40239740336134       -0.12145853791254
H            1.04931688577833       -2.64747067705485       -1.30968738671385
H           -0.55504229347838       -3.36403707687508        0.46682536590656
H           -2.95525538298163       -3.84151479348840        0.63864233131771
H           -5.28021492958815       -3.06300055586866        0.65507619580165
H           -6.91700011676307       -1.24306560750289        0.41997383558469
H           -7.40887370222644        1.12653039540758        0.00817328545274
H           -6.64063581650918        3.41136312913615       -0.48547279261644
H           -4.23920004637195        3.88705976091104       -0.74804340388175
H           -1.90673927546683        3.09958255013772       -0.81574610781361
H           -0.27427960424909        1.30817312323451       -0.56449980801151
H            0.64377283448692        0.53753031462824        1.54251510105001
