  42
        -76.96770758
 N          8.1078447518        0.7038625558        0.1885604636
 C          6.9603206467        0.7265855067        0.1325490301
 C          5.5546908313        0.7557575320        0.0792885525
 C          5.0121190689        2.0413315058       -0.0793770769
 N          4.6189887665        3.1013267825       -0.2877626637
 C          4.8525514026       -0.4346489832        0.0468371233
 C          3.4536383099       -0.6201255226        0.0699197148
 C          2.8859941536       -1.8235265819       -0.4332593541
 F          3.7329213699       -2.7517827957       -0.9225869882
 C          1.5494468572       -2.0750372420       -0.4930574593
 C          0.6140207571       -1.1093823858       -0.0445240534
 C         -0.7903595547       -1.3388274305       -0.1133833622
 C         -1.3002325745       -2.6517259658        0.0320249235
 C         -2.6238921678       -2.8888984945        0.2389540337
 C         -3.5698886459       -1.8237860550        0.2726974478
 C         -4.9268340361       -2.0448851907        0.5355742203
 C         -5.8300373304       -1.0055268640        0.5325070819
 C         -5.4193684891        0.3054870970        0.2221474987
 C         -6.3280861223        1.3839821569        0.1786409250
 C         -5.9015291256        2.6586606092       -0.1493516198
 C         -4.5778481621        2.9008498753       -0.4539056235
 C         -3.6276238982        1.8542186814       -0.4202618434
 C         -2.2795562019        2.0519214549       -0.7617219927
 C         -1.3677099553        1.0191216104       -0.6912845746
 C         -1.7396693571       -0.2577448409       -0.2464871810
 C         -3.1140830294       -0.5090613531       -0.0029851894
 C         -4.0512436009        0.5487093763       -0.0644198036
 C          1.1465579252        0.0616418917        0.5488467961
 C          2.4919108228        0.2741232922        0.6119421461
 F          2.9220865364        1.3380026212        1.3127041477
 H          5.4477898647       -1.3342173589       -0.0597892410
 H          1.2192217193       -2.9929303825       -0.9514919519
 H         -0.6052384064       -3.4760377871        0.0738068184
 H         -2.9778157850       -3.8945199271        0.4117854125
 H         -5.2604651898       -3.0513265336        0.7430963403
 H         -6.8708663469       -1.1878483716        0.7555413114
 H         -7.3682224890        1.1976609822        0.4003577012
 H         -6.6146043422        3.4692345523       -0.1769312751
 H         -4.2496024182        3.8929966856       -0.7246715370
 H         -1.9587950730        3.0297655261       -1.0885905443
 H         -0.3526732730        1.1942992977       -1.0129318805
 H          0.4935033076        0.7642155450        1.0423061071
