  58
       -100.57946562
 O          5.4612048527        2.7328037879        0.2145998680
 S          5.1500100177        1.4976778042       -0.4584361801
 O          5.5965791674        1.3678748958       -1.8150934618
 C          5.8159342728        0.1495023273        0.5291054898
 C          6.8481928065        0.3979501037        1.4167284107
 C          7.3636131489       -0.6425412621        2.1751729705
 C          6.8380426241       -1.9203167374        2.0521674693
 C          5.7950518701       -2.1617102338        1.1706238027
 C          5.2926009807       -1.1225821920        0.4069267145
 S          3.9333075401       -1.4352401037       -0.7291400086
 O          3.2348410603       -2.6065534787       -0.2626562659
 O          4.4182008328       -1.4670646921       -2.0782119908
 C          2.8497004490       -0.0233513955       -0.4867903697
 C          1.4897946637       -0.2326261275       -0.4027428555
 C          0.6179645430        0.8424505965       -0.2026199761
 C         -0.8258756600        0.6204947915       -0.1189726551
 C         -1.7314586215        1.5529711937       -0.6296699707
 C         -3.0893943864        1.3352332887       -0.5671277313
 C         -3.5993525701        0.1749583913        0.0244695424
 N         -4.9663955222       -0.0499391408        0.0873921261
 C         -5.4775133488       -1.3566090849        0.0288391448
 C         -4.9131673877       -2.2999483252       -0.8282865415
 C         -5.4249078285       -3.5821943283       -0.8826652157
 C         -6.5079256365       -3.9390288019       -0.0958923438
 C         -7.0768255275       -3.0020472030        0.7509782173
 C         -6.5663880079       -1.7198702674        0.8192356349
 C         -5.8618459884        1.0256400478        0.2046244437
 C         -5.5669833343        2.1035038165        1.0377071151
 C         -6.4572531244        3.1536154065        1.1550873282
 C         -7.6522219702        3.1412796496        0.4544044261
 C         -7.9511906277        2.0694536737       -0.3707733598
 C         -7.0638588245        1.0182998357       -0.5005443772
 C         -2.6953125623       -0.7551008585        0.5487719461
 C         -1.3387334717       -0.5377897154        0.4700139530
 C          1.1666709528        2.1232673712       -0.0782548349
 C          2.5326078429        2.3241842576       -0.1539920385
 C          3.3778309995        1.2473064368       -0.3651031106
 H          7.2237155130        1.4064584554        1.4974354761
 H          8.1734183829       -0.4537216708        2.8635853437
 H          7.2374717400       -2.7299995557        2.6439853248
 H          5.3515197260       -3.1394400128        1.0621772580
 H          1.1250366114       -1.2416708061       -0.5093315471
 H         -1.3641206532        2.4412090128       -1.1215060163
 H         -3.7712953094        2.0568957997       -0.9919338548
 H         -4.0768668105       -2.0192378764       -1.4520949479
 H         -4.9794432979       -4.3040638540       -1.5508998074
 H         -6.9070484233       -4.9405613059       -0.1441389986
 H         -7.9190667363       -3.2726873232        1.3700207908
 H         -7.0062028929       -0.9915433290        1.4849724336
 H         -4.6408594281        2.1070202184        1.5943570834
 H         -6.2198387030        3.9819606326        1.8059729791
 H         -8.3467895747        3.9614319329        0.5518784542
 H         -8.8787145498        2.0538107853       -0.9234648002
 H         -7.2943269770        0.1849139101       -1.1481475563
 H         -3.0713021193       -1.6469795524        1.0274551859
 H         -0.6632230599       -1.2600890085        0.9027619551
 H          0.5165417592        2.9658434665        0.1034628042
 H          2.9691779050        3.3045569266       -0.0416984071
