  101
       -155.85373755
 C         -9.5981043520        3.4316267611       -3.7697773753
 C        -10.1011412764        2.1587055458       -3.5586873664
 C         -9.4782599279        1.3034085632       -2.6687959999
 C         -8.3375235005        1.7063597438       -1.9789560253
 C         -7.6715431833        0.7992945666       -1.0315353677
 C         -8.4193023335        0.0039125126       -0.1682070516
 C         -7.7950507162       -0.8590183698        0.7278085577
 C         -8.5915621893       -1.6906053319        1.6431481191
 C         -8.2320533152       -3.0131803506        1.8917836305
 C         -8.9826333877       -3.7970722680        2.7481265469
 C        -10.1006283249       -3.2715240724        3.3741152037
 C        -10.4646644579       -1.9565250653        3.1371163998
 C         -9.7184162276       -1.1726210065        2.2769342306
 C         -6.4074131285       -0.9252876544        0.7493146523
 C         -5.6376050568       -0.1337938339       -0.1023954952
 C         -4.1771613447       -0.2027039369       -0.0674634604
 C         -3.5207814062       -1.4472378541       -0.2879833151
 C         -4.2367603947       -2.6105334183       -0.5968481940
 C         -3.6035355305       -3.8418440900       -0.7139195151
 C         -2.2415021858       -3.9342281906       -0.5101133221
 C         -1.4986760482       -2.7850487830       -0.2570621944
 C         -2.0987539850       -1.5237645753       -0.2042553506
 C         -1.3319716852       -0.3304657524       -0.0108824767
 C          0.1130788156       -0.3879581402        0.0075652734
 C          0.8374390677       -1.0275936898       -1.0141022676
 C          2.2088722559       -1.0225725763       -1.0193398926
 C          2.9361822578       -0.3980725686        0.0062006886
 C          4.3739515571       -0.4103554879       -0.0890419550
 N          5.0322981121       -1.3147619350       -0.7839821786
 C          6.3433388045       -1.0163094211       -0.6510574702
 C          7.4587331968       -1.7121774870       -1.2001748472
 C          7.3238171517       -2.8584699547       -1.9748519406
 C          8.4463596264       -3.4989378179       -2.4727317909
 C          9.7063291001       -3.0033195808       -2.2053546896
 C          9.8783881717       -1.8492919418       -1.4337601639
 C         11.1732035006       -1.3221722564       -1.1613774155
 C         11.3257868661       -0.1926780030       -0.4337776197
 C         10.2011949558        0.5092724805        0.0903768032
 C         10.3669192248        1.6910155492        0.8194970380
 C          9.2722662813        2.3775833018        1.3003610122
 C          7.9914998892        1.8955092083        1.0921171638
 C          7.7788868162        0.7053943718        0.3956565383
 C          8.8988093804        0.0030664108       -0.1411675406
 C          8.7415393849       -1.1819200188       -0.9146974212
 C          6.5038477449        0.1257067775        0.1445528482
 N          5.2312790073        0.4969477499        0.5051431657
 C          4.8439907040        1.6103138889        1.2773596683
 C          5.1261784228        1.6470076320        2.6399512237
 C          4.7179577814        2.7319663052        3.3936708590
 C          4.0276576500        3.7750151097        2.7967699423
 C          3.7478809047        3.7360726535        1.4407793196
 C          4.1548069581        2.6574555661        0.6766519843
 C          2.2213554006        0.1797396958        1.0633559790
 C          0.8480933945        0.1994261745        1.0504737619
 C         -1.9959443828        0.9270036013        0.1608127900
 C         -1.2902995149        2.1307564290        0.2468970523
 C         -1.9378523631        3.3402537938        0.4792738699
 C         -3.3098078980        3.3686683006        0.6270201938
 C         -4.0436224863        2.1986577641        0.4750529698
 C         -3.4213862243        0.9773707033        0.1871408279
 C         -6.2848248221        0.7278588152       -0.9875723614
 C         -7.8377960266        2.9874231429       -2.2016312570
 C         -8.4652021604        3.8431150467       -3.0877917657
 H        -10.0865930016        4.0999836256       -4.4632519664
 H        -10.9818890196        1.8305148444       -4.0913602408
 H         -9.8655979013        0.3057171371       -2.5203171357
 H         -9.4972152029        0.0575380418       -0.1934534173
 H         -7.3689689828       -3.4332731448        1.3956788199
 H         -8.6950259868       -4.8229306540        2.9273417715
 H        -10.6849285522       -3.8837229073        4.0449165558
 H        -11.3325001756       -1.5393045653        3.6269752149
 H         -9.9973080159       -0.1423447977        2.1090210680
 H         -5.9111100685       -1.5622843510        1.4662700602
 H         -5.3028234963       -2.5486221715       -0.7506795761
 H         -4.1839704400       -4.7220292198       -0.9478280918
 H         -1.7435374130       -4.8911191101       -0.5563858780
 H         -0.4373591800       -2.8761979230       -0.0880357734
 H          0.2976182418       -1.4739471707       -1.8362037500
 H          2.7612902701       -1.4827991275       -1.8232099926
 H          6.3309608611       -3.2316347111       -2.1713996691
 H          8.3345689852       -4.3903031547       -3.0727202097
 H         10.5811676492       -3.5040716101       -2.5954191822
 H         12.0315522114       -1.8463302968       -1.5572750377
 H         12.3093349360        0.2089651958       -0.2348764746
 H         11.3652367317        2.0664466180        0.9916990853
 H          9.4086592665        3.3001767452        1.8456328656
 H          7.1525137246        2.4585626357        1.4675533091
 H          5.6624457053        0.8261266084        3.0936906585
 H          4.9373328253        2.7608994810        4.4503735759
 H          3.7085883027        4.6185237225        3.3897162653
 H          3.2122075755        4.5490112154        0.9743743067
 H          3.9391466075        2.6133845793       -0.3805228802
 H          2.7399810710        0.5894536446        1.9152149289
 H          0.3141720145        0.6287174489        1.8858235209
 H         -0.2188070643        2.1293931518        0.1222784507
 H         -1.3593302055        4.2491621150        0.5528429568
 H         -3.8191854329        4.2958631401        0.8444253621
 H         -5.1162958691        2.2308735134        0.5858638308
 H         -5.6947339823        1.3121188660       -1.6778998897
 H         -6.9621083504        3.3190465419       -1.6624559547
 H         -8.0699122564        4.8361287131       -3.2460346987
