83
 energy: -131.117716015525 gnorm: 0.000048697935 xtb: 6.7.1 (edcfbbe)
C           11.98755687315670       -0.00022875349674       -0.04347575721744
C           11.64821803585049        0.76269836702456        1.06269681086089
C           10.33576982108234        1.13963288051456        1.26924284782775
C            9.34414641060081        0.75011783280911        0.36959243994041
C            7.97978494016102        1.17827000183276        0.62347186336469
N            7.65428944883540        2.31863200328777        1.17697967859497
N            6.32627094238121        2.40184082447286        1.23091197670421
C            5.81833676817365        1.31113469214126        0.71555980239636
C            4.39831545359497        1.02501714566160        0.63685257069258
C            3.88644426422463       -0.26298197827875        0.78290918333774
C            2.52602502207582       -0.48157826754286        0.71106036530491
C            1.63918501196904        0.57356958768966        0.50340476001435
C            0.19359686160814        0.33183213539613        0.42389180837300
C           -0.30870166704109       -0.78780132493218       -0.23942147659737
C           -1.66613537296036       -1.00898731142914       -0.32006148208147
C           -2.56899899490041       -0.11586541223694        0.25958576523204
C           -3.98629985043325       -0.41426255017313        0.14757502741320
N           -4.45561276278006       -1.63739198155587        0.13874508675649
C           -5.80434996274597       -1.52201263298507        0.03573055961814
C           -6.77095773061140       -2.56594437656074        0.02873467219982
C           -6.38987192860852       -3.90645403859977        0.14783504764981
C           -7.33934230457445       -4.89702111657233        0.17277761519464
C           -8.68715491414201       -4.55498457215183        0.08225758395595
C           -9.07244588204488       -3.24049851774182       -0.04068272809336
C           -8.13181408265846       -2.19971193102520       -0.07892970804060
C           -8.50383701504454       -0.80473764652706       -0.24174567207271
C           -9.83818918021485       -0.41838857489266       -0.43145234115382
C          -10.19728679777507        0.89344852556276       -0.63116441779577
C           -9.22302574519849        1.88569145881550       -0.66749641499106
C           -7.90500319087321        1.55121130266411       -0.47773795150755
C           -7.52054473200006        0.22316396397201       -0.24332332929329
C           -6.17018531005059       -0.17875803526156       -0.03968628291579
N           -4.98996381466665        0.52518410186927        0.04541716944515
C           -4.79531993262017        1.92032917650278        0.03453710773615
C           -5.29307200050473        2.70161505010275        1.07346806956014
C           -5.06998259103561        4.06595041167705        1.07064873272134
C           -4.34832864781149        4.65210302000765        0.04293719777231
C           -3.85029170186608        3.87203721901200       -0.98725658027167
C           -4.07120720151708        2.50657407308168       -0.99666804570502
C           -2.07033056861628        0.98909685105308        0.94784537618938
C           -0.70999706388960        1.20913500346590        1.02058769508620
C            2.15675334435074        1.86350761074088        0.38385702819190
C            3.51501688563324        2.08824671678517        0.45031003715509
N            6.83673652285340        0.48204794809603        0.30357319019851
C            6.73019747752618       -0.77787804825675       -0.30993714524762
C            7.36555958235088       -1.87872901319976        0.25407558017995
C            7.25775446536881       -3.11417671511182       -0.35715188166426
C            6.51778248075514       -3.25579614110586       -1.51970767402816
C            5.88392887226979       -2.15712316679930       -2.07674943816291
C            5.98854489454731       -0.91525684124988       -1.47834128747299
C            9.69372800291417        0.00327344195590       -0.75323260121214
C           11.01007842053738       -0.37015722005121       -0.95194921336968
H           13.01326693851279       -0.29839309723842       -0.20248945460992
H           12.41050121133747        1.06376683381497        1.76588375676171
H           10.05387935564824        1.73824751605951        2.12122565433438
H            4.54756252189346       -1.09505675601628        0.97612705059256
H            2.14188301862363       -1.48192461621554        0.84573770863743
H            0.37455498634755       -1.47667549049545       -0.71421904433455
H           -2.05670674868985       -1.87360089052488       -0.83359698321555
H           -5.33636480989910       -4.12585937159483        0.22567180865234
H           -7.05031675923199       -5.93343587470756        0.26676483073296
H           -9.43899691435698       -5.33065418178589        0.10899190244359
H          -10.12720003387518       -3.02458958843646       -0.10398015919795
H          -10.61687696379269       -1.16385112615942       -0.43282866046009
H          -11.23620999700883        1.15210604833792       -0.77374929150532
H           -9.49991533731220        2.91376926248975       -0.84866616589399
H           -7.15208468115293        2.32176082280602       -0.52656240738975
H           -5.85224942183051        2.23271163675975        1.87012462780479
H           -5.45724239106372        4.67202060164591        1.87582486942456
H           -4.17416441361180        5.71735295109197        0.04647660269947
H           -3.28868148597943        4.32742697577661       -1.78884641229072
H           -3.68541523917445        1.88842116131161       -1.79365080970079
H           -2.74092984343502        1.66814981637765        1.45201484746501
H           -0.33986738804154        2.05934335813563        1.57442627922488
H            1.48541444578589        2.69278951683979        0.21633029215142
H            3.91854661757970        3.08454590828846        0.35896241932201
H            7.93814797715861       -1.75790156337253        1.16185536644831
H            7.75124781717076       -3.96926977058452        0.07926557271718
H            6.43502204390879       -4.22285599924212       -1.99184315405201
H            5.30806124316911       -2.26484384510241       -2.98342841756838
H            5.50046432412366       -0.05160732195656       -1.90557149427217
H            8.94548687031599       -0.27090946637499       -1.48246454498320
H           11.27341220120980       -0.94962262842157       -1.82468981073948
