  83
       -131.11764383
 C         12.0030734957       -0.3826778824       -0.2792524470
 C         11.7022214832        0.5323538225        0.7172993455
 C         10.3993705359        0.9497467602        0.9056220420
 C          9.3784990989        0.4491584762        0.0981774824
 C          8.0269057636        0.9295993843        0.3241693701
 N          7.7333352554        2.1394763405        0.7279959228
 N          6.4087989245        2.2558370425        0.7955916850
 C          5.8704784338        1.1171659289        0.4385702571
 C          4.4430009753        0.8598233682        0.4189293219
 C          3.8987151313       -0.3856004859        0.7266922976
 C          2.5313755648       -0.5711327355        0.7016984411
 C          1.6704891145        0.4774947224        0.3830087820
 C          0.2168240774        0.2758914696        0.3539505753
 C         -0.3354086807       -0.8912548378       -0.1733693478
 C         -1.7014115106       -1.0671263378       -0.2167898676
 C         -2.5622693005       -0.0801418494        0.2661480369
 C         -3.9921374932       -0.3261236181        0.1919763985
 N         -4.5180381487       -1.5190845512        0.3199791369
 C         -5.8606391703       -1.3523182175        0.2055927803
 C         -6.8754789115       -2.3433766822        0.3159827922
 C         -6.5574541090       -3.6790928078        0.5825813825
 C         -7.5525723902       -4.6140625723        0.7202069936
 C         -8.8833795664       -4.2197595741        0.5969541454
 C         -9.2068898832       -2.9102483951        0.3286748925
 C         -8.2182867876       -1.9268861654        0.1704188833
 C         -8.5251860349       -0.5431641068       -0.1489137247
 C         -9.8405893245       -0.1182560322       -0.3830835595
 C        -10.1383795295        1.1782218603       -0.7299254705
 C         -9.1188228351        2.1132291722       -0.8754618754
 C         -7.8172195622        1.7404349307       -0.6476110085
 C         -7.4946421619        0.4302615262       -0.2657929108
 C         -6.1636139892       -0.0100799598       -0.0190343835
 N         -4.9513984006        0.6424231288       -0.0137435957
 C         -4.6906585148        2.0161348900       -0.1858720547
 C         -5.1387636671        2.9350370497        0.7587084945
 C         -4.8491214242        4.2772468622        0.5980746073
 C         -4.1106456031        4.7051753990       -0.4936343813
 C         -3.6627361721        3.7885364154       -1.4300801098
 C         -3.9501431519        2.4437293256       -1.2813237976
 C         -2.0133282166        1.0724693028        0.8260552596
 C         -0.6450819707        1.2466634062        0.8607847905
 C          2.2210182918        1.7278083073        0.1007959380
 C          3.5856992878        1.9184180373        0.1184520043
 N          6.8650846444        0.2202549774        0.1216107097
 C          6.7245008501       -1.1092220115       -0.3121327763
 C          7.3482028654       -2.1353742287        0.3890727419
 C          7.2077927487       -3.4404093425       -0.0453590303
 C          6.4468623370       -3.7246648258       -1.1675668456
 C          5.8247614073       -2.6997534992       -1.8615995225
 C          5.9618846343       -1.3900163739       -1.4406668258
 C          9.6892693699       -0.4527023554       -0.9171578888
 C         10.9962911349       -0.8658002357       -1.0981143260
 H         13.0214552324       -0.7118166764       -0.4235934337
 H         12.4873151904        0.9211626302        1.3486982797
 H         10.1475092664        1.6663653101        1.6715523930
 H          4.5398628886       -1.2077213528        1.0091851651
 H          2.1221469281       -1.5364625851        0.9610264669
 H          0.3154126230       -1.6548109420       -0.5736808943
 H         -2.1309217818       -1.9674616198       -0.6276129791
 H         -5.5149470232       -3.9387658953        0.6816611454
 H         -7.3121839084       -5.6462948469        0.9280607455
 H         -9.6709877162       -4.9502810911        0.7136202983
 H        -10.2507246440       -2.6520122645        0.2457725510
 H        -10.6532762283       -0.8219458909       -0.3027388637
 H        -11.1644085012        1.4676443486       -0.9031067324
 H         -9.3478707507        3.1265384733       -1.1708837361
 H         -7.0291811236        2.4644774699       -0.7810142644
 H         -5.7114920833        2.5889916909        1.6068565303
 H         -5.1976709588        4.9901746043        1.3300410884
 H         -3.8846600382        5.7538396367       -0.6133261349
 H         -3.0879748948        4.1205484201       -2.2813059270
 H         -3.6023662595        1.7196567396       -2.0029296787
 H         -2.6511272111        1.8277040686        1.2592513771
 H         -0.2357607677        2.1378474023        1.3132827512
 H          1.5695156052        2.5501126748       -0.1556298373
 H          4.0150134989        2.8837194628       -0.0996062791
 H          7.9375567050       -1.9033281153        1.2638940112
 H          7.6923175172       -4.2376043516        0.4976802765
 H          6.3389363678       -4.7453179443       -1.5015872072
 H          5.2327746644       -2.9185041873       -2.7373478321
 H          5.4830478457       -0.5832034462       -1.9758044382
 H          8.9180230144       -0.8184409160       -1.5790467074
 H         11.2289347034       -1.5663869206       -1.8866743121
