83
 energy: -131.117728271600 gnorm: 0.000037804327 xtb: 6.7.1 (edcfbbe)
C           11.99777889569114       -0.40075612648705       -0.28135110737274
C           11.70020683755333        0.51572314694366        0.71481992398558
C           10.39949497871375        0.94127141820104        0.89996938679576
C            9.37766648864518        0.44728585706482        0.08981334189955
C            8.02774234621440        0.93397306405451        0.31324865630998
N            7.73692764167103        2.14698058325799        0.70934890049831
N            6.41257902537145        2.26609077395820        0.77749773029110
C            5.87173732668839        1.12602645952997        0.42876376374674
C            4.44390952240004        0.87052529190564        0.41347890922187
C            3.89917189168579       -0.37359965915180        0.72603016716215
C            2.53176899541291       -0.55830821281118        0.70331111286240
C            1.67095092353795        0.48984282741074        0.38260992640849
C            0.21742195084804        0.28720813603950        0.35379752203211
C           -0.33292008795910       -0.88200873146592       -0.17119555571822
C           -1.69856586258663       -1.06007770914897       -0.21498947633185
C           -2.56121707858735       -0.07341372184777        0.26568220451040
C           -3.99052641803088       -0.32230955828521        0.19065630278299
N           -4.51351416783042       -1.51687763850989        0.31600730204541
C           -5.85643563914948       -1.35341287728019        0.20115893009022
C           -6.86856182317440       -2.34768059853614        0.30762882038356
C           -6.54694354874718       -3.68334195351182        0.57026436136737
C           -7.53939841950788       -4.62189355754520        0.70260670439982
C           -8.87117203159585       -4.23149948356967        0.57713647822303
C           -9.19821520774933       -2.92201115513784        0.31318009155221
C           -8.21241267672431       -1.93473052099738        0.16167073056211
C           -8.52319053183528       -0.55035959834106       -0.15095467843230
C           -9.84019460565127       -0.12743915047504       -0.37992041551851
C          -10.14201454866246        1.17011059980628       -0.71905333908410
C           -9.12499578696949        2.10824677717773       -0.86261814910674
C           -7.82195302448255        1.73736836495311       -0.63994066485250
C           -7.49526978105511        0.42625296340055       -0.26479312319753
C           -6.16287049142013       -0.01143151563802       -0.02058826673275
N           -4.95226971883538        0.64415706219443       -0.01358545089443
C           -4.69450756769936        2.01868821451118       -0.18334311830245
C           -5.14605782141069        2.93525147271801        0.76192016013562
C           -4.85880142195829        4.27828666441026        0.60383090020820
C           -4.11903301328219        4.70935946283107       -0.48588170728563
C           -3.66755169340527        3.79504605323303       -1.42290700208878
C           -3.95282634394087        2.44945601401322       -1.27686843382394
C           -2.01412956573459        1.08111776028441        0.82361378865201
C           -0.64614780834707        1.25777936059576        0.85817827886179
C            2.22181246432584        1.73943152112759        0.09738465428221
C            3.58669567831642        1.92914544566051        0.11229818124245
N            6.86452998040781        0.22540634904535        0.11638728189143
C            6.72358418170886       -1.10706527065902       -0.30782616118653
C            7.35102250377190       -2.12738897969036        0.39857632801495
C            7.21129941650635       -3.43562603270444       -0.02628394821035
C            6.44733648968887       -3.72873764277171       -1.14412383377211
C            5.82156480687776       -2.70960259065595       -1.84340935125723
C            5.95812565920767       -1.39674107101783       -1.43221152951741
C            9.68523404393417       -0.45610583287284       -0.92510973683185
C           10.99010009542681       -0.87722779011909       -1.10303429458937
H           13.01442637532926       -0.73616907301049       -0.42344176697107
H           12.48608210171672        0.89907331549237        1.34856003066697
H           10.15013245170986        1.65874459750695        1.66593941434726
H            4.54013479489946       -1.19543356636782        1.00968167935413
H            2.12237053647396       -1.52287387327905        0.96504125210839
H            0.31926980915060       -1.64522642827664       -0.56997233130038
H           -2.12655763351158       -1.96172212265693       -0.62451974128476
H           -5.50383651939875       -3.94022810584366        0.67028488461280
H           -7.29623866708187       -5.65411108687707        0.90735269353668
H           -9.65667002982042       -4.96516237918145        0.68840375863424
H          -10.24265665695695       -2.66703541066513        0.22796514684559
H          -10.65114640015048       -0.83320697707476       -0.30045278897213
H          -11.16927201763084        1.45810794771049       -0.88758094203113
H           -9.35714978646584        3.12243152137401       -1.15239575046129
H           -7.03601485049181        2.46387935911916       -0.77206853154509
H           -5.71952403983775        2.58666472136778        1.60859549930157
H           -5.20984364223111        4.98929028173820        1.33653411688479
H           -3.89431170005282        5.75856065599095       -0.60327048936019
H           -3.09198058638742        4.12950230724042       -2.27272387733657
H           -3.60356421511806        1.72740494669800       -1.99992074086740
H           -2.65310266650949        1.83618927692116        1.25542311810800
H           -0.23840088738041        2.15055972333055        1.30904436842059
H            1.57044868669436        2.56186955341246       -0.15912686941473
H            4.01632026167265        2.89382173399629       -0.10802220550344
H            7.94261991738018       -1.88821171457596        1.26997090132838
H            7.69873168423909       -4.22828819026344        0.52077599442168
H            6.33964338479599       -4.75188740969687       -1.47052100436243
H            5.22703986666212       -2.93558445666347       -2.71562475628238
H            5.47652509707243       -0.59433865691421       -1.97150407578256
H            8.91327013632906       -0.81639352688760       -1.58921652279154
H           11.22067965775374       -1.57794098600147       -1.89210630342842
