49
 energy: -77.104684664778 gnorm: 0.000038884768 xtb: 6.7.1 (edcfbbe)
C           -5.60723432396219        3.34034524658790       -0.50708936149145
C           -4.29428989265301        3.56514290831192       -0.12330076639481
C           -3.42148453853095        2.50567018120774        0.01749321510078
C           -3.84975435026270        1.19703645119352       -0.21674356242541
C           -2.90317914129906        0.11064380150708       -0.05575292559814
N           -1.58814223439127        0.31193107832340       -0.21358244371217
C           -0.95347015101457       -0.84988787865470       -0.06754759920571
C            0.42941641338645       -1.07375783135427       -0.28575027448217
C            0.87215696913922       -2.31064179579422       -0.81085355697905
C            2.18681882327221       -2.57717503742458       -1.02771308766247
C            3.19949755042509       -1.61581777221390       -0.70746236446429
C            4.55128784857697       -1.89076655981917       -0.88510814096827
C            5.51796451328825       -0.93944646305464       -0.59691425808377
C            5.15523647890502        0.32625579419890       -0.12212423654346
C            6.12322243562579        1.31936246651939        0.17779922111689
C            5.74056469070416        2.56322345877191        0.64436773693183
C            4.40924053670889        2.86733427349304        0.83102793563165
C            3.39943136947365        1.90762288601222        0.54510780602296
C            2.04135787503339        2.17979342936239        0.72265881118080
C            1.07522887038257        1.22300079619005        0.44540023832942
C            1.41935569031215       -0.03866534470752       -0.03245836399983
C            2.79235902333307       -0.34329325765461       -0.22582902440544
C            3.77988292814410        0.62838253360705        0.06401835412963
N           -1.87468367398047       -1.84224488076223        0.25950658546514
C           -1.70427826656337       -3.11261216432753        0.70213637324512
C           -2.78061450921617       -3.86063006262563        1.06190232591217
C           -4.08212350383542       -3.30514837284563        1.01928504487994
C           -4.24881841652389       -2.00069463892106        0.64719029927152
C           -3.13470769407520       -1.24287764201348        0.26413531375532
C           -5.16628276137102        0.98320613281935       -0.62590809977539
C           -6.03535383480351        2.04839568493384       -0.76549263039669
H           -6.29147567549515        4.16896449936262       -0.61508045769081
H           -3.95273918902926        4.57241036517250        0.06568796156468
H           -2.39625015232209        2.66782303351347        0.31073287333698
H            0.13446989498960       -3.03635264288606       -1.12488195099646
H            2.49150149430060       -3.51469260207230       -1.46949698837864
H            4.84658419098592       -2.86322711347899       -1.25355946946442
H            6.56383958550781       -1.16988598487589       -0.73978119721920
H            7.16764870482606        1.08575473408832        0.03289301724411
H            6.49564764496356        3.30453502948933        0.86593459145481
H            4.11154290413327        3.83821742064956        1.19838604085469
H            1.74184683561744        3.15309270536550        1.08415840579621
H            0.03396929419423        1.45850545608046        0.58950415888400
H           -0.69212501107806       -3.47401967319979        0.78535299465104
H           -2.63683781610397       -4.87077156433544        1.40799482149673
H           -4.92593802532603       -3.90615477664010        1.31767909391628
H           -5.21859576130304       -1.53184817436570        0.67270192166454
H           -5.50098659591344       -0.01368708076008       -0.86970868430414
H           -7.05226988459138        1.87114193123939       -1.08513803301389
