49
 energy: -77.168885524570 gnorm: 0.000069701161 xtb: 6.7.1 (edcfbbe)
C           -6.82044735046311       -1.50688864885621        1.39285582992234
C           -5.84260606474198       -2.41854785403020        1.02733487925852
C           -4.62016480488097       -1.97674671321183        0.56308997720643
C           -4.35444545060013       -0.61114981491551        0.45208746280111
C           -3.05476299727594       -0.18640659636778       -0.03577809190035
N           -1.97055315684713       -0.98121732964042        0.10307394342221
C           -0.92695408122409       -0.33961366692445       -0.37733041203377
C            0.42496180441701       -0.87982946837744       -0.40932140192137
C            0.60075030278152       -2.16207737408735       -0.92660533277592
C            1.85549956279322       -2.71784755949490       -1.04389051534858
C            2.99044692158775       -2.00832981893472       -0.64386686998245
C            4.30441206607154       -2.54008764631037       -0.78729995545780
C            5.39203859774429       -1.84716846614694       -0.37748535322259
C            5.26284122387647       -0.56203357461621        0.22589212009088
C            6.36937464030170        0.16472180061883        0.66857056104551
C            6.21090652718515        1.40429125999732        1.26051959174482
C            4.95031770557464        1.94653729677599        1.42923806284226
C            3.81588709675013        1.25656977011202        0.99914613645497
C            2.49921799160847        1.76886244772984        1.18220538410897
C            1.41240246685361        1.09225582938872        0.74353118541077
C            1.53504611497721       -0.16156616867760        0.07280197674634
C            2.82909447773402       -0.72491059643737       -0.06529735386571
C            3.96701920769518       -0.01014568644952        0.38365303593693
N           -1.29628930229966        0.87579836125580       -0.88356209075824
C           -0.58717769846707        1.81933184385697       -1.56445721430386
C           -1.21700936267579        2.92235870388648       -2.03499755275910
C           -2.61257389987179        3.08739345753704       -1.84476858947050
C           -3.32888750340225        2.13365161408622       -1.18516443057505
C           -2.67418239861899        0.99781225689744       -0.67794036587855
C           -5.33597053847781        0.29833181653858        0.84314618031693
C           -6.55915138074572       -0.14971902262739        1.30536508710954
H           -7.77830485910353       -1.85195932405153        1.75388162991894
H           -6.03747934322941       -3.47847927895286        1.10592152998722
H           -3.84735555581385       -2.67454929870179        0.28066713363447
H           -0.27304183739113       -2.70777647110596       -1.24881914896145
H            1.97234064714590       -3.70787104632020       -1.46055455818619
H            4.40909906750855       -3.51815324456248       -1.23541575612375
H            6.38522472477058       -2.25781896852590       -0.49255648998629
H            7.35765227208927       -0.25484069598311        0.54554235598819
H            7.07913058903459        1.95166288851379        1.59817281228653
H            4.83255768935080        2.91217322555980        1.89995064585859
H            2.38630062970692        2.71370600770470        1.69498260264644
H            0.42411373443359        1.48799597475199        0.92658016091496
H            0.46502317924767        1.62728242973168       -1.70636535278698
H           -0.65640489467427        3.66970593923839       -2.57228789946501
H           -3.09818955995583        3.96383869930938       -2.24329838082304
H           -4.39626631354972        2.21843073652110       -1.06396920400439
H           -5.13167854104375        1.35805687643079        0.81571406516426
H           -7.31175934588790        0.56496609784845        1.60710696975272
