49
 energy: -77.169752008823 gnorm: 0.000044942797 xtb: 6.7.1 (edcfbbe)
C           -5.66219985194783        3.31463454294093       -0.64048554417040
C           -4.32133359480036        3.56495324445354       -0.39537096273925
C           -3.43909289531865        2.51713169972767       -0.22609332179421
C           -3.88376725838028        1.19581352231034       -0.29503365361052
C           -2.92351702590718        0.12291153122215       -0.10824518850521
N           -1.61399872815949        0.31842401545149       -0.37120460186890
C           -0.97132366016485       -0.80965281987388       -0.14662059024439
C            0.44414403104238       -1.03499278710085       -0.38808210067393
C            0.84612175087770       -2.20562923003608       -1.03385570127423
C            2.17467644719545       -2.46553818784518       -1.28845639630326
C            3.16536987795094       -1.55833567595059       -0.90813634258131
C            4.54692870702708       -1.80250496730430       -1.15400752519134
C            5.49327916785896       -0.90586466145407       -0.79174311314682
C            5.14149538501225        0.31771440335764       -0.15043189361840
C            6.10158903062078        1.25656757236769        0.23064472249126
C            5.73009082049609        2.43550769606901        0.85049150327955
C            4.39845666356092        2.70582790531757        1.10537875992043
C            3.40428046076365        1.79523853531280        0.74294512112138
C            2.02287856259961        2.03603106505672        0.99388260834695
C            1.07340368707389        1.14044003944107        0.63577244016305
C            1.41273787991649       -0.08173475156957       -0.01355785625560
C            2.78038849010617       -0.35252661301627       -0.27100518803533
C            3.77353242383709        0.58521528357932        0.10641033366289
N           -1.83642917280869       -1.77315124874674        0.29931389825018
C           -1.61990355875363       -3.03636378332136        0.76083904998820
C           -2.65804461770670       -3.77291187769152        1.22529400250886
C           -3.96533181478259       -3.22631473593278        1.26257479237405
C           -4.18019471579496       -1.94871122641178        0.83902204147947
C           -3.10789651369938       -1.19150714351030        0.33722319176681
C           -5.22961606233816        0.95397055463593       -0.56624882836231
C           -6.10920256539126        2.00716229416265       -0.73274959431790
H           -6.35399815262621        4.13417055169793       -0.76939172363142
H           -3.96490222178528        4.58327749882673       -0.33606419229311
H           -2.39176489478295        2.69921783877735       -0.04168688308608
H            0.09698089012625       -2.90581528670033       -1.37714422028565
H            2.45831361763885       -3.37587055683786       -1.79737578213244
H            4.81993010352785       -2.72820967602537       -1.64119100874469
H            6.53968421305696       -1.09880576266144       -0.98230003165271
H            7.14456699501746        1.05200085165863        0.03467873957246
H            6.48709188108962        3.15114291347071        1.13767021122740
H            4.11489572735276        3.62936681420252        1.58968710241098
H            1.74880169954968        2.95989490429560        1.48356778170729
H            0.03036379886975        1.34176579843027        0.82012734810582
H           -0.60008133100190       -3.38780216607803        0.75723169050735
H           -2.48386849379957       -4.77288452632003        1.58777129488711
H           -4.77557901076361       -3.82280846311226        1.65034542452649
H           -5.15508315755210       -1.49434850903454        0.90324255091024
H           -5.58424193221471       -0.05937648966373       -0.67861753191230
H           -7.15020797247770        1.80674966441584       -0.94324807633995
