49
 energy: -77.104685269191 gnorm: 0.000188073150 xtb: 6.7.1 (edcfbbe)
C           -5.55023866168988        3.42934317779090       -0.51651559822199
C           -5.99745227281063        2.14690144303781       -0.78978051388988
C           -5.14702199279139        1.06631632463633       -0.65335885745496
C           -3.83025781981968        1.25506618113893       -0.23290874349441
C           -2.90219205499053        0.15234457214093       -0.07457004244708
N           -1.58357760197882        0.33370434178394       -0.22572486865946
C           -0.96739320041993       -0.83833837484529       -0.08060726222729
C            0.41285938030973       -1.08188452122103       -0.29319890214167
C            0.84079699339949       -2.32591787877216       -0.81400779200293
C            2.15263497786439       -2.61191516906984       -1.02272177929033
C            3.17729919680223       -1.66469088155366       -0.69868284992814
C            4.52599623827140       -1.95981449069663       -0.86739209782349
C            5.50462064291297       -1.02155386880998       -0.57704622335055
C            5.15746348909072        0.25131432094409       -0.10970598070570
C            6.13789553252473        1.23180162980685        0.19103575941697
C            5.77061633019623        2.48333287879690        0.64935865126469
C            4.44278441500943        2.80736337821444        0.82715331339513
C            3.42100124551953        1.86079379420027        0.54040399086555
C            2.06600249563695        2.15323750617040        0.70904328770581
C            1.08785470262595        1.20897480948049        0.43122922234504
C            1.41624269754283       -0.05986811389901       -0.03874169863094
C            2.78578616989788       -0.38474828356311       -0.22375940947834
C            3.78557547289612        0.57393540121118        0.06736485272280
N           -1.90555331492818       -1.81730508750609        0.23917420312433
C           -1.75763476826717       -3.09110018130541        0.68012990279961
C           -2.84761931850485       -3.82328217411455        1.03136421660351
C           -4.14032702724944       -3.24809148296564        0.98135515186495
C           -4.28452030123829       -1.94021749216042        0.61198366693373
C           -3.15626067076672       -1.19853296162600        0.23883988283623
C           -3.38253375247694        2.55432699864602        0.01669553336216
C           -4.23682741835930        3.62920569688448       -0.12070678370738
H           -6.21997373665381        4.27004124321052       -0.62211170817603
H           -7.01459184165797        1.98931902657751       -1.11886355758761
H           -5.49604217460999        0.07710598646265       -0.90839373110110
H            0.09464374809372       -3.04161099342958       -1.13094913591804
H            2.44619167154334       -3.55472246308526       -1.46079339080982
H            4.80934921122229       -2.93771689867869       -1.23083901026863
H            6.54785407604953       -1.26770171578482       -0.71293016250294
H            7.17963677184595        0.98244221509028        0.05318190550857
H            6.53501345707829        3.21473023408092        0.87199413489537
H            4.15696898006196        3.78420418855779        1.18815991122720
H            1.77834505385334        3.13259982337193        1.06377070648893
H            0.04935159151700        1.46014494127858        0.56827038604009
H           -0.75175636934597       -3.46820217701842        0.76936000424007
H           -2.72148322937357       -4.83614066638202        1.37640964692540
H           -4.99515865276895       -3.83718928989595        1.27203220194810
H           -5.24708212678706       -1.45643023512325        0.63167381334672
H           -2.35722542938122        2.69706235891312        0.31964523918853
H           -3.88045476173711        4.62891519514584        0.08076529930984
