  93
       -148.50531533
 C         -5.7654339818       -3.1586461578        0.0703863924
 C         -4.8768070787       -2.5551132593       -1.0330633978
 C         -5.6833885757       -2.3879123784       -2.3344028433
 C         -3.7236341495       -3.5020377369       -1.3016680325
 C         -3.9907683145       -4.7917009072       -1.7406247360
 C         -2.9841147673       -5.6912220479       -2.0367225003
 C         -1.6658581813       -5.2911926904       -1.9133370425
 C         -1.3722905615       -4.0174082340       -1.4761289576
 C         -2.3886446939       -3.1157567486       -1.1421806058
 N         -2.0648064250       -1.8472581993       -0.6889188429
 C         -0.7013914946       -1.4980458995       -0.5250887910
 C         -0.1046142073       -0.5812593949       -1.3948131602
 C          1.2149127323       -0.2481496993       -1.2186304279
 C          1.9706506574       -0.8195771944       -0.1891105327
 C          1.3849193767       -1.7555234077        0.6883024301
 C          0.0354784895       -2.0674495726        0.4971621582
 C          2.1808864732       -2.3559371623        1.7475124357
 C          1.6615648643       -3.3077882749        2.6336424368
 C          2.4375168443       -3.8621589061        3.6271055668
 C          3.7684658722       -3.4862060270        3.7759041219
 C          4.3073204832       -2.5568189788        2.9185757615
 C          3.5323080454       -1.9870093311        1.9040330500
 C          4.1264363345       -1.0199087937        1.0117683940
 N          5.4010550633       -0.6842712423        1.1788250960
 C          5.9323464554        0.2038699642        0.3455169196
 C          7.3151076653        0.5814184356        0.5085301083
 C          8.1106864633        0.0379441905        1.5230447322
 C          9.4242681192        0.4355461154        1.6272032219
 C          9.9052294038        1.3699882430        0.7074054286
 N          9.1766246982        1.8921702651       -0.2492802094
 C          7.9018634102        1.5197054858       -0.3651123075
 C          7.1095175381        2.1105862378       -1.4297271135
 N          7.6983720095        2.9962314238       -2.2334860006
 C          6.9977133265        3.5406727359       -3.1986640405
 C          5.6541545360        3.2478797995       -3.4424442449
 C          5.0289427479        2.3353370779       -2.6233206003
 C          5.7576810334        1.7419379775       -1.5868141689
 C          5.1595598465        0.7788388526       -0.6941877055
 N          3.8848630998        0.4443244244       -0.8611463971
 C          3.3537960464       -0.4449324826       -0.0276164314
 C         -3.0371283653       -0.8922824932       -0.4026820533
 C         -2.6450155986        0.3467614792        0.0999747647
 C         -3.5999813503        1.3130432772        0.3609826300
 C         -3.5358357254        2.6544915562        0.8673630788
 C         -2.4877160737        3.4826029090        1.2450143401
 C         -2.7771650479        4.7644234201        1.6679527676
 C         -4.0908028610        5.2271290567        1.7001705525
 C         -5.1503546144        4.4218405029        1.3283300612
 C         -4.8694403789        3.1235113400        0.9269545474
 N         -5.7236296311        2.1343945005        0.4818798774
 C         -7.1177526437        2.2234063124        0.3976765482
 C         -7.8587454795        2.6856815386        1.4821944908
 C         -9.2352565465        2.7741680694        1.3916570574
 C         -9.8860502800        2.3923692341        0.2301855765
 C         -9.1517670187        1.9256514226       -0.8475407202
 C         -7.7739540756        1.8454053371       -0.7711222702
 C         -4.9616045931        1.0333491691        0.1320086724
 C         -5.3550709729       -0.2190966712       -0.3032480900
 C         -4.4014612024       -1.1883497608       -0.5770736380
 H         -6.1336781151       -4.1379480246       -0.2221097652
 H         -5.1910277905       -3.2678863964        0.9883880373
 H         -6.6212832016       -2.5214285436        0.2758342438
 H         -6.0367515401       -3.3483498435       -2.6987919722
 H         -6.5466820894       -1.7469729071       -2.1780131535
 H         -5.0557459174       -1.9402685117       -3.1028107456
 H         -5.0154894168       -5.1100896551       -1.8596818287
 H         -3.2275685196       -6.6877870370       -2.3719416543
 H         -0.8616082183       -5.9682081403       -2.1603218562
 H         -0.3401483501       -3.7122908264       -1.3991882967
 H         -0.6901051592       -0.1451498898       -2.1900643303
 H          1.7034332704        0.4571471716       -1.8717403811
 H         -0.4676477014       -2.7681698564        1.1443135295
 H          0.6351856081       -3.6262880977        2.5472784047
 H          2.0079670811       -4.5949212588        4.2943625442
 H          4.3711175957       -3.9237398583        4.5575807590
 H          5.3360943798       -2.2447511757        3.0034234178
 H          7.6727242173       -0.6806740255        2.1988165821
 H         10.0701787862        0.0399796680        2.3957877740
 H         10.9317581791        1.7110858173        0.7500924828
 H          7.5307835359        4.2517494985       -3.8168437443
 H          5.1264179291        3.7275464631       -4.2522877317
 H          3.9929267351        2.0621497555       -2.7535049051
 H         -1.6066756634        0.5600257012        0.2959764751
 H         -1.4689496519        3.1271716844        1.2019924593
 H         -1.9772498889        5.4246895821        1.9685562376
 H         -4.2855503750        6.2406948017        2.0187363260
 H         -6.1618845122        4.7990517234        1.3383063002
 H         -7.3511200558        2.9589937092        2.3951121287
 H         -9.8036258645        3.1344384188        2.2364759687
 H        -10.9615509657        2.4586075656        0.1649375291
 H         -9.6542399599        1.6319472676       -1.7574597517
 H         -7.1965804500        1.5075945575       -1.6188304180
 H         -6.4046883906       -0.4405065786       -0.4149308164
