  92
       -150.95365377
 N         10.4834849718        1.6509173176        0.3195824812
 C          9.4648605612        1.1216802201        0.2538688455
 C          8.2258562976        0.4680269486        0.1761623481
 N          7.0973851504        1.1786554630        0.0994578882
 C          5.9238361400        0.5620514704        0.0343156567
 C          4.7172266625        1.3144194679       -0.0491828375
 C          4.6954878613        2.7213280395       -0.0564463084
 C          3.4974021468        3.3858784504       -0.1272504903
 C          2.3033093206        2.6385357189       -0.2119964789
 C          0.9624136142        3.2148560166       -0.2853312085
 C         -0.0476933801        2.4424384346       -0.8684262455
 C         -1.3518783653        2.8706390632       -0.8773770094
 C         -1.7020637636        4.0822958042       -0.2720277693
 N         -3.0414184430        4.4623381696       -0.2000829470
 C         -3.4066086163        5.8115263532       -0.2520557788
 C         -4.4589340458        6.2869173688        0.5311191455
 C         -4.8192191100        7.6188771289        0.4749550034
 C         -4.1375844647        8.4957705317       -0.3536876850
 C         -3.0912488058        8.0283576151       -1.1327311742
 C         -2.7265407738        6.6970368743       -1.0886196694
 C         -4.0290878910        3.4770074522       -0.0683683294
 C         -3.7975612950        2.3437086919        0.7133602350
 C         -4.7585780951        1.3572433166        0.8105814065
 C         -5.9682648035        1.4892504236        0.1475392838
 C         -6.2113956127        2.6212052317       -0.6134250840
 C         -5.2514012501        3.6084939033       -0.7272770549
 C         -0.6918286787        4.8751827644        0.2788007338
 C          0.6207964884        4.4506025758        0.2629533622
 N          2.3228503171        1.3175368811       -0.2177275411
 C          3.4648338081        0.6575543741       -0.1257143479
 C          3.4064285822       -0.7817612354       -0.0817184524
 N          2.2202987617       -1.3538368508       -0.1041743949
 C          2.0812257772       -2.6674738440       -0.0419160620
 C          0.7029829086       -3.1422659577       -0.0208833732
 C         -0.3218946789       -2.1864131168       -0.0801775190
 C         -1.6442159872       -2.5518611499       -0.0391036997
 C         -2.0013332551       -3.9001945260        0.0707297757
 N         -3.3444752837       -4.2713075259        0.1313278733
 C         -3.7756394159       -5.4631631716       -0.4612661130
 C         -4.7635327337       -6.2368343321        0.1489201345
 C         -5.1882342159       -7.4112043435       -0.4406562463
 C         -4.6352870739       -7.8349472999       -1.6385076318
 C         -3.6524906546       -7.0708403311       -2.2472213505
 C         -3.2244370579       -5.8919580002       -1.6691874929
 C         -4.2674756456       -3.4486146572        0.7864870651
 C         -5.5579230867       -3.2912710827        0.2794947520
 C         -6.4683899872       -2.4850506686        0.9342178985
 C         -6.1105552416       -1.8220251392        2.0970630478
 C         -4.8282939637       -1.9717838978        2.6023469727
 C         -3.9110471999       -2.7780325622        1.9574834788
 C         -0.9875254978       -4.8603166593        0.1234915044
 C          0.3386579834       -4.4876698175        0.0763867901
 C          3.2274131926       -3.4994769472        0.0194975399
 C          4.4719955079       -2.9331235241        0.0390158227
 C          4.6122028440       -1.5284477897        0.0041805673
 C          5.8622006715       -0.8726656570        0.0534409116
 N          7.0024084866       -1.5769491316        0.1253617875
 C          8.1659859520       -0.9495203198        0.1812394145
 C          9.3598653962       -1.6944432370        0.2533854341
 N         10.3363966335       -2.2955308935        0.3067842429
 H          5.6371845102        3.2484493165       -0.0038931029
 H          3.4659619740        4.4640342239       -0.1424340304
 H          0.2228658275        1.4962053553       -1.3089797103
 H         -2.1181208291        2.2691308767       -1.3435411195
 H         -4.9827947935        5.6062079337        1.1860289479
 H         -5.6326235911        7.9763110056        1.0886509562
 H         -4.4200666804        9.5365737640       -0.3921776539
 H         -2.5590633657        8.7044074862       -1.7853297977
 H         -1.9188442054        6.3308409914       -1.7052236258
 H         -2.8604334507        2.2432288251        1.2405172395
 H         -4.5657673909        0.4798278096        1.4098770227
 H         -6.7132125241        0.7122468011        0.2245976765
 H         -7.1512703021        2.7325025219       -1.1334512670
 H         -5.4365510621        4.4816267403       -1.3355516325
 H         -0.9494562199        5.8132176597        0.7483963953
 H          1.3772694380        5.0651598118        0.7275760704
 H         -0.0388189715       -1.1488530183       -0.1625424309
 H         -2.4185708206       -1.8008777406       -0.1009927620
 H         -5.1862590967       -5.9139789265        1.0890294485
 H         -5.9503878473       -8.0038354909        0.0429528838
 H         -4.9684605024       -8.7543438703       -2.0948034993
 H         -3.2217907946       -7.3907201445       -3.1842936639
 H         -2.4682584357       -5.2898753689       -2.1509792992
 H         -5.8362780060       -3.7999137514       -0.6316991849
 H         -7.4633023424       -2.3703581037        0.5299478836
 H         -6.8240945587       -1.1925939975        2.6068261372
 H         -4.5432743047       -1.4650071615        3.5127404573
 H         -2.9168685311       -2.9034384513        2.3601383655
 H         -1.2513484353       -5.9036537080        0.2184168148
 H          1.0927919172       -5.2574284535        0.1319884143
 H          3.1212197568       -4.5716594941        0.0582393902
 H          5.3702186773       -3.5315348507        0.0909270154
