92
 energy: -151.010027029478 gnorm: 0.000105787424 xtb: 6.7.1 (edcfbbe)
N           10.36254226692619        1.96600137810079        0.25097034874824
C            9.35703482885346        1.42125476740356        0.18290705181282
C            8.13206466749216        0.71368247702977        0.09448445358606
N            6.99831675785124        1.39044666410341        0.17191223243874
C            5.85319503879488        0.71570339575509        0.09049526182647
C            4.61249726778922        1.43298206526727        0.15851961715169
C            4.54164396388372        2.82831472150316        0.29390559322563
C            3.31301348455629        3.44024986599362        0.32597488430450
C            2.14938564283401        2.65175461171701        0.21286984565484
C            0.79821697057555        3.20201595539241        0.18148147412706
C            0.46332912839130        4.45634709383682        0.69310371825525
C           -0.83563699223503        4.91274041413802        0.64656410112962
C           -1.84687462833702        4.13913223662044        0.06671116689718
N           -3.15401947962763        4.60396647686341        0.01104145452146
C           -4.23552281436446        3.70980606846171        0.01459046607828
C           -5.34924067692209        3.95874867069815       -0.78626002990157
C           -6.41929073319559        3.08504872232621       -0.78046535648517
C           -6.39195845879484        1.94925380823497        0.01146994998484
C           -5.28698843797146        1.69508338314608        0.80741336623394
C           -4.21787717166496        2.57013619467970        0.81820453736352
C           -3.41724185637338        5.98008297130312       -0.08269368539596
C           -2.63796702218174        6.79819712273033       -0.89889542478671
C           -2.90821779845667        8.15019260243284       -0.98685450416276
C           -3.95938275497611        8.70312001693921       -0.27383128283484
C           -4.74111581012138        7.89210031578571        0.53248352969921
C           -4.47386637911029        6.54040122493717        0.63294376711587
C           -1.51090510172340        2.88335091497470       -0.45184415226490
C           -0.21887549824424        2.42319180323483       -0.38170226741282
N            2.21927091567356        1.33338417397364        0.09662228317411
C            3.39469909237847        0.72778418967076        0.07374965331196
C            3.39608079986227       -0.71874090687212       -0.05128797764718
N            2.22179955180276       -1.32676479315764       -0.07530471571894
C            2.15527575066382       -2.64475910550505       -0.19670634859073
C            0.80550400950945       -3.19854774104969       -0.16965755968902
C           -0.21122153307955       -2.43304060442183        0.41172200182261
C           -1.50216144797896       -2.89715410945449        0.47634638845296
C           -1.83754073439910       -4.14221322695990       -0.06791776403178
N           -3.14385374288541       -4.60969577990978       -0.02003647567705
C           -4.22682025862219       -3.71746692365855        0.00476334796428
C           -5.33523337842830       -3.98872527000051        0.80569285363202
C           -6.40663606803157       -3.11698036564837        0.82868672309675
C           -6.38589172329116       -1.96143101823501        0.06565963047510
C           -5.28649810507002       -1.68543538569153       -0.73073040276582
C           -4.21605723036759       -2.55807277715526       -0.77018238573126
C           -3.40610502554832       -5.98809494172552        0.03711276516883
C           -2.62623450575647       -6.82759657270628        0.83066152735233
C           -2.89560155895058       -8.18167939099440        0.88158790794560
C           -3.94638518820480       -8.71559359479999        0.15365640101079
C           -4.72895028581720       -7.88334160736060       -0.62988966219820
C           -4.46267495061783       -6.52920603642804       -0.69318101477146
C           -0.82639522719449       -4.90206808433160       -0.66594005658697
C            0.47183262526842       -4.44298308373530       -0.70540127986633
C            3.32031794002132       -3.43069756602463       -0.31207282145937
C            4.54766141818721       -2.81641163970354       -0.27694186434915
C            4.61525008955351       -1.42127038498970       -0.13788220768097
C            5.85450034814380       -0.70152764662113       -0.06949490701380
N            7.00076560905475       -1.37414610820099       -0.15186824438320
C            8.13332540239504       -0.69532006470990       -0.07547431593192
C            9.35945542022618       -1.40071254664543       -0.16562407595675
N           10.36594977877802       -1.94336011404717       -0.23528964428674
H            5.45952120662718        3.39305957996314        0.36065370041955
H            3.24054826042986        4.51308425227654        0.40951221000295
H            1.21423778950922        5.07027484695532        1.16746836625516
H           -1.08265808858108        5.87410258342739        1.07238381747367
H           -5.36763525662066        4.83836475780194       -1.41290274946150
H           -7.27587822899878        3.28893609491167       -1.40586420092956
H           -7.22913183975191        1.26840826729239        0.01013328979425
H           -5.26014421076674        0.81183594246653        1.42848125408448
H           -3.36387710874004        2.37805261131001        1.45081431517737
H           -1.82612614975568        6.36528041597846       -1.46494595122120
H           -2.29922849002433        8.77430665064383       -1.62400735007994
H           -4.16904794555228        9.75927528200856       -0.34756928458431
H           -5.56084778119337        8.31592277585482        1.09341058998216
H           -5.07952116902061        5.90880217651198        1.26630832569255
H           -2.27482943778276        2.27844729233947       -0.91704118479666
H            0.04147293436695        1.45264633084118       -0.77338997792425
H            0.04818836670969       -1.46994081338783        0.82197678691887
H           -2.26566723058948       -2.30346469396631        0.95639657189888
H           -5.34828656988242       -4.88403772795719        1.40985118225461
H           -7.25896752705035       -3.33809293090446        1.45404464968901
H           -7.22394719371052       -1.28210070908979        0.08970219365797
H           -5.26510618881520       -0.78676529233162       -1.32951408164394
H           -3.36631462450866       -2.34871820576202       -1.40305438377625
H           -1.81455665513960       -6.40978258276346        1.40817708073009
H           -2.28612256564705       -8.82262394913427        1.50131787422997
H           -4.15513348976181       -9.77355905953817        0.19823158447995
H           -5.54847120383965       -8.29222316447313       -1.20209343774312
H           -5.06887913789656       -5.88069410645222       -1.30867888634269
H           -1.07291319201136       -5.85444423177883       -1.11172472466420
H            1.22305503905318       -5.04533452466761       -1.19397306596833
H            3.24935712568957       -4.50337801702614       -0.39919737372051
H            5.46686078270606       -3.37887681791813       -0.34468935560270
