92
 energy: -150.958848910381 gnorm: 0.000176855954 xtb: 6.7.1 (edcfbbe)
N           10.36719239919855        1.96646795894192        0.24188918511259
C            9.36969731861743        1.40216440793366        0.17368148462737
C            8.14746871586288        0.70885931224804        0.09032328021779
N            6.99639357093587        1.37931599692350        0.16280233890550
C            5.83211364657051        0.71460261958951        0.08589918237880
C            4.60044067417918        1.41435462292670        0.14965555613120
C            4.53048839733883        2.81563768980292        0.28384349973380
C            3.31150016952119        3.43646337923745        0.31523414440433
C            2.13622117741210        2.65632838946463        0.20091741100064
C            0.78765098969174        3.21798265825732        0.16641439147686
C            0.45482265137438        4.46169405466083        0.70300498646862
C           -0.84347049677530        4.92344230030203        0.65963474416342
C           -1.85148415765523        4.16429100501006        0.05816823707242
N           -3.16226241624708        4.63172510352440        0.00844562611770
C           -4.23845578555431        3.73532772624859        0.02423975682023
C           -5.36774163330589        3.98391779686929       -0.75638208745754
C           -6.43060801385440        3.10212584875300       -0.74207326393129
C           -6.38244475021578        1.95900974839097        0.03885239279799
C           -5.26263425535529        1.70491940786224        0.81432455230550
C           -4.19938835374508        2.58663489959835        0.81578955615660
C           -3.42008647443829        6.00621377522904       -0.08902706847335
C           -2.62479905582325        6.82214177084682       -0.89319355682209
C           -2.88728270033070        8.17528542917682       -0.98258414954789
C           -3.94464649483623        8.73269226378548       -0.28178180131620
C           -4.74092991702389        7.92471912181705        0.51377089437955
C           -4.48317009594574        6.57153253795858        0.61472198997218
C           -1.51793418001935        2.92098676567216       -0.48933339052179
C           -0.22711686890323        2.45580991232911       -0.42225559385790
N            2.19836267446418        1.34415986597068        0.08708772435313
C            3.36615399231651        0.72004195189615        0.06803744906650
C            3.36804543115450       -0.71233670971010       -0.04909043488602
N            2.20171680632525       -1.33948858059851       -0.06923386459085
C            2.14363519948380       -2.65139858474784       -0.18735992179028
C            0.79658005878812       -3.21700854190074       -0.15610913055590
C           -0.21758951207339       -2.46752773619874        0.44928824197430
C           -1.50737946742149       -2.93630404728545        0.51155887483053
C           -1.84065589318360       -4.16930549054212       -0.05900716891485
N           -3.15096813569974       -4.63839588364905       -0.01646695873266
C           -4.22778053117086       -3.74243139280307       -0.00883710925220
C           -5.35378861527213       -4.00891316797246        0.77056593164323
C           -6.41697823430436       -3.12744262466781        0.78030556633050
C           -6.37232893086942       -1.96716759239555        0.02490728002013
C           -5.25604678196551       -1.69561648853024       -0.74971990615943
C           -4.19256452411462       -2.57669856218967       -0.77523141105202
C           -3.40874942144995       -6.01482374321177        0.04895624531080
C           -2.61262899720054       -6.84977840585719        0.83247548508534
C           -2.87513677220957       -8.20466760108028        0.88974802128387
C           -3.93338071775631       -8.74507396769236        0.17705867619699
C           -4.73068864351345       -7.91821704506809       -0.59779297352398
C           -4.47291395771036       -6.56302391545044       -0.66660543686842
C           -0.83285949057582       -4.91575652670833       -0.67663157752661
C            0.46472748729024       -4.45146962846199       -0.71401128487998
C            3.32068936189286       -3.42827649583082       -0.30393677002580
C            4.53809020475775       -2.80437871414626       -0.26962819008007
C            4.60405407863784       -1.40329655018700       -0.13182667701815
C            5.83404988270039       -0.70034634636068       -0.06669371453103
N            6.99983128108466       -1.36202334413841       -0.14329306161227
C            8.14936847484504       -0.68863579177024       -0.07058271118456
C            9.37331409484650       -1.37880405083843       -0.15356064832522
N           10.37226394475252       -1.94059673445507       -0.22144654314016
H            5.45562240855260        3.37018904367675        0.35029033174209
H            3.24509140545294        4.50975992976301        0.39744078285805
H            1.20657122863522        5.06225030672518        1.19265654043823
H           -1.09141129089420        5.87533497698990        1.10591561715993
H           -5.40120426400919        4.86734790965792       -1.37685598992378
H           -7.29803439864474        3.30490277743552       -1.35251330489405
H           -7.21483435181295        1.27248547341761        0.04481556016948
H           -5.21989337967612        0.81630556128443        1.42665336127789
H           -3.33412978265920        2.39502812097970        1.43284077584688
H           -1.80878356744429        6.38563187037186       -1.45013777142309
H           -2.26707519571519        8.79714407540452       -1.61077693345824
H           -4.14745786059396        9.79002821493900       -0.35603780286241
H           -5.56433326759715        8.35237043772747        1.06614041600778
H           -5.09809288324161        5.94301410716182        1.24211248837838
H           -2.28148380773284        2.33099459571663       -0.97418680862452
H            0.03306352506134        1.49306685731045       -0.83300677052994
H            0.04181092319493       -1.51189076350538        0.87676475365631
H           -2.27039277951401       -2.35687477858903        1.00977442136273
H           -5.38432290001091       -4.90594542039705        1.37137092222468
H           -7.28173290466160       -3.34403324434938        1.38978778898566
H           -7.20470911107359       -1.28074879255914        0.03805725577198
H           -5.21633817384057       -0.79364828428305       -1.34244162928359
H           -3.33005950074021       -2.37124129900511       -1.39168668929913
H           -1.79595423310429       -6.42676158779151        1.39878580092874
H           -2.25425894526532       -8.84144270393933        1.50213704634723
H           -4.13609295888318       -9.80389856663783        0.22609000421252
H           -5.55480196773764       -8.33246517269456       -1.15924359457398
H           -5.08856652965679       -5.91957773245952       -1.27794544743741
H           -1.08041443820284       -5.85925273383623       -1.14057271322622
H            1.21660008995258       -5.04134134148054       -1.21636123913808
H            3.25653361582921       -4.50147829509647       -0.38949254931579
H            5.46474256183248       -3.35627831563812       -0.33690546124074
