92
 energy: -151.010024846501 gnorm: 0.000040213134 xtb: 6.7.1 (edcfbbe)
N            1.96383018085441      -11.23986910948973        0.22564275116212
C            1.41839574947738      -10.23446460909405        0.16193674877482
C            0.71015947313253       -9.00947896841690        0.07908474357704
N            1.38775450333075       -7.87593633941860        0.15208843577931
C            0.71291392453777       -6.73058218460201        0.07529800559912
C            1.43101972980637       -5.49024418470028        0.14142488874715
C            2.82674525727015       -5.41998036084696        0.27312646635834
C            3.43880764620359       -4.19146728996799        0.30781368560618
C            2.64996908799310       -3.02749819616847        0.20114663415843
C            3.19930127908852       -1.67580291897151        0.17947263609466
C            4.44999970045196       -1.34292134323903        0.70106485192933
C            4.90343245176712       -0.04248623664174        0.66947298802119
C            4.13060333987422        0.97237740536697        0.09488369909350
N            4.59128678097823        2.28148161255482        0.05710921582564
C            3.69448070261339        3.36075868375476        0.06423150210581
C            3.95056526615237        4.48476532838732       -0.71984439025447
C            3.07630083556413        5.55428531964139       -0.70891007818594
C            1.93259493255853        5.51598731511682        0.07101997709158
C            1.67038495644247        4.40014606611267        0.84886785860362
C            2.54617530739839        3.33158897209613        0.85513561164597
C            5.96761129701886        2.55038775594027       -0.01775784765706
C            6.79694117381583        1.78630182855622       -0.83691538512228
C            8.14888900593614        2.06227003360538       -0.90617477876094
C            8.69055882802032        3.10404612059954       -0.17106468698855
C            7.86837787646304        3.87063417506086        0.63849082057154
C            6.51657037713393        3.59760454663431        0.72011160828483
C            2.87960247514803        0.63789863478568       -0.43612155506650
C            2.42202833761959       -0.65575798531867       -0.38040190413307
N            1.33157603407141       -3.09685361015842        0.08525328984555
C            0.72593193761002       -4.27221922013947        0.05990323377874
C           -0.72081893969369       -4.27298946371823       -0.06193928199557
N           -1.32769658655286       -3.09827083591466       -0.08741289827848
C           -2.64620445633352       -3.03028181913827       -0.20288441357404
C           -3.19696679447413       -1.67917127913774       -0.18104409004496
C           -2.41993419511554       -0.65801412771820        0.37716701873992
C           -2.87895731384217        0.63510964782511        0.43334694509743
C           -4.13137403420789        0.96789760561036       -0.09536880030099
N           -4.59380020601725        2.27637090163286       -0.05679387805056
C           -3.69856722604765        3.35691778979150       -0.06603461958651
C           -3.95466377938793        4.48080933053877        0.71820855892204
C           -3.08201357261298        5.55162088739455        0.70507991892291
C           -1.93989139679824        5.51475943137367       -0.07723788600255
C           -1.67763136413164        4.39901577980091       -0.85520930641873
C           -2.55184001407236        3.32915443934450       -0.85927667829755
C           -5.97035220062513        2.54324078401375        0.02116508157124
C           -6.79664869442647        1.77798626028026        0.84229692925018
C           -8.14884812258633        2.05191815584045        0.91463130097456
C           -8.69377223945060        3.09280110388845        0.18066195456878
C           -7.87460961414704        3.86053664875406       -0.63086354273616
C           -6.52258095933996        3.58954009378121       -0.71556122915989
C           -4.90394207462370       -0.04802962485020       -0.66842422968565
C           -4.44895088093877       -1.34790125046765       -0.70059831910559
C           -3.43383283300768       -4.19512013629134       -0.30912212253256
C           -2.82046821207920       -5.42298196637167       -0.27444539332578
C           -1.42463980155756       -5.49177337758649       -0.14307160950321
C           -0.70522412132211       -6.73134095352231       -0.07683359547173
N           -1.37885740362924       -7.87741841819240       -0.15346414509332
C           -0.70006667851559       -9.01023629840046       -0.08031507892433
C           -1.40700012187442      -10.23598440475092       -0.16298247972203
N           -1.95132921977268      -11.24199782228903       -0.22662516075292
H            3.39150001963972       -6.33813212279884        0.33592268384887
H            4.51183260176951       -4.11904653000318        0.38911608455558
H            5.06264974179040       -2.09685229267120        1.17229761606785
H            5.86137842046688        0.20284198526557        1.10385764011304
H            4.83659131236974        4.51179013844418       -1.33707930997824
H            3.28623395986351        6.41920477671142       -1.32070070359158
H            1.25194299132505        6.35318581501934        0.07522894298355
H            0.78042839384972        4.36482798209913        1.45984246994657
H            2.34833447740690        2.46945843393046        1.47481864205446
H            6.37276347497894        0.98178313017825       -1.41979522299578
H            8.78188026995258        1.46525337301667       -1.54589030192421
H            9.74673439433403        3.31820335717708       -0.23015382614253
H            8.28344526045567        4.68285084087529        1.21663155361058
H            5.87602538656539        4.19134218841748        1.35577782106961
H            2.27602753478433        1.40451529153693       -0.89860991799501
H            1.45460859117925       -0.91477273710449       -0.78061278091353
H           -1.45150923336092       -0.91577851509842        0.77575151480307
H           -2.27547425075517        1.40258900205596        0.89452574161240
H           -4.83943900524324        4.50674482437742        1.33728111969015
H           -3.29195894601776        6.41644589517594        1.31700021738657
H           -1.26052526297764        6.35299374359581       -0.08319291672201
H           -0.78889249578439        4.36477904223798       -1.46801248662474
H           -2.35399878081507        2.46709699269443       -1.47906043100394
H           -6.36991806094165        0.97417071233741        1.42428324846104
H           -8.77946525344292        1.45401539879995        1.55586223453408
H           -9.75013213409307        3.30536806905545        0.24214916125838
H           -8.29223256897282        4.67205267715221       -1.20814679518433
H           -5.88439627000420        4.18417162108576       -1.35276387912386
H           -5.86298588524582        0.19603260787110       -1.10109900654448
H           -5.06153638278002       -2.10264393791164       -1.17060641361241
H           -4.50695786861810       -4.12390037015770       -0.39012355528437
H           -3.38428482285282       -6.34173071591333       -0.33694112030666
