  66
  -98.9296014300000       0.166911462542895      !
 C         -3.4231247228       -4.0197525525        0.1731842526
 C         -2.6268824594       -3.6682059782        1.2499385415
 C         -1.8761932385       -2.5083094787        1.2100060238
 C         -1.9138345859       -1.6841549179        0.0908469101
 C         -1.1232061282       -0.4334981907        0.0459927244
 C         -1.7961845399        0.7842063303       -0.0414299173
 C         -3.2697155170        0.7972749960       -0.1412842668
 C         -3.8891324062        1.3325538101       -1.2668524544
 C         -5.2672745828        1.3259513438       -1.3786375761
 C         -6.0438466518        0.7900065823       -0.3652217916
 C         -5.4353565441        0.2629404948        0.7614071577
 C         -4.0574677054        0.2645865435        0.8735117240
 C         -1.0739492025        1.9857238185        0.0175719144
 C         -1.7329294547        3.2490690310        0.0905838385
 C         -1.0377165841        4.4048505036        0.1856848697
 C          0.3857716184        4.4044252048        0.2152532616
 C          1.1242299724        5.5830931095        0.3345842570
 C          2.5057581462        5.5515469598        0.3746577959
 C          3.1805849409        4.3482761226        0.2903540395
 C          2.4796674703        3.1468529893        0.1714293281
 C          3.1392941390        1.8986882993        0.0216286573
 C          2.4634093572        0.7220499328       -0.0892034088
 C          3.2557583454       -0.4744933050       -0.4310363176
 C          3.0003900638       -1.1636514867       -1.6123350912
 C          3.7880413395       -2.2372866388       -1.9807269881
 C          4.8422088730       -2.6362475476       -1.1766146162
 C          5.1147805768       -1.9447104124       -0.0089826349
 C          4.3338893331       -0.8640647243        0.3560922662
 C          1.0273405255        0.7010383054        0.0166185876
 C          0.2737946956       -0.4837243052        0.1001508229
 C          0.9014072417       -1.7997626809        0.3320354251
 C          1.6447760273       -2.0037825308        1.4902645224
 C          2.1854555870       -3.2448198862        1.7671855079
 C          1.9890901778       -4.2991352146        0.8921770725
 C          1.2459907883       -4.1060389205       -0.2597642339
 C          0.7002838735       -2.8673645912       -0.5362041286
 C          0.3427456746        1.9466130624        0.0502292213
 C          1.0648524635        3.1636811064        0.1394798308
 C         -2.7196711545       -2.0412931142       -0.9844791037
 C         -3.4676933012       -3.2031216537       -0.9438131356
 H         -4.0085053073       -4.9267904289        0.2051156919
 H         -2.5903469277       -4.3004758211        2.1250945275
 H         -1.2591522832       -2.2338109876        2.0533844936
 H         -3.2811570877        1.7450537768       -2.0600403153
 H         -5.7368200420        1.7400269812       -2.2592070229
 H         -7.1201691357        0.7844104753       -0.4530314296
 H         -6.0370769867       -0.1523177805        1.5564993784
 H         -3.5849513389       -0.1432222870        1.7547414405
 H         -2.8124864990        3.2610184262        0.0864305661
 H         -1.5510719381        5.3537296736        0.2507123064
 H          0.6004123997        6.5260546831        0.3993505305
 H          3.0612356457        6.4734256708        0.4689277952
 H          4.2606984394        4.3267871960        0.3129776773
 H          4.2177242105        1.9004933331       -0.0579342226
 H          2.1831299229       -0.8466027630       -2.2440565151
 H          3.5796169048       -2.7652550120       -2.8998011939
 H          5.4527068274       -3.4799330657       -1.4622676749
 H          5.9411987583       -2.2468225440        0.6178453668
 H          4.5455777332       -0.3258517749        1.2690714687
 H          1.7896654085       -1.1818370662        2.1773840646
 H          2.7603154399       -3.3906649075        2.6701526164
 H          2.4124882219       -5.2687523904        1.1084894977
 H          1.0881086504       -4.9260491017       -0.9448669251
 H          0.1244946487       -2.7212614134       -1.4380266537
 H         -2.7521639100       -1.4073767001       -1.8588644491
 H         -4.0878390104       -3.4718910565       -1.7865997875
  66
  -98.9295981800000       0.166338417737264      !
 C         -3.4447170944       -4.0041975531       -0.0172734151
 C         -3.4044527989       -3.2184904554        1.1218087387
 C         -2.6482574081       -2.0614741932        1.1407249840
 C         -1.9184864419       -1.6787709776        0.0210135332
 C         -1.1240104422       -0.4296783063        0.0368357587
 C         -1.7881701415        0.7861506845        0.1885412118
 C         -3.2515976628        0.7945424790        0.3897643924
 C         -4.1063145353        0.2934803166       -0.5860595353
 C         -5.4731956215        0.2824207334       -0.3796038248
 C         -6.0033009140        0.7675906583        0.8040287994
 C         -5.1596872406        1.2722606513        1.7791905785
 C         -3.7925179415        1.2891422324        1.5727412728
 C         -1.0702697072        1.9879518840        0.0992958260
 C         -1.7321946148        3.2518903637        0.1017748352
 C         -1.0460743368        4.4096760966       -0.0275434367
 C          0.3704560169        4.4101892701       -0.1708785150
 C          1.0976670473        5.5911723074       -0.3296370701
 C          2.4715517290        5.5615736252       -0.4807315327
 C          3.1502861840        4.3576321289       -0.4697905884
 C          2.4603500059        3.1540762778       -0.3139969740
 C          3.1290726677        1.9041554690       -0.2398606900
 C          2.4647657798        0.7249395027       -0.0926043078
 C          3.2882719889       -0.4748981434        0.1517234829
 C          4.2826086471       -0.8476713068       -0.7463147190
 C          5.0995896383       -1.9300343799       -0.4791193677
 C          4.9483315492       -2.6403823807        0.6992910222
 C          3.9803112035       -2.2578951306        1.6121059709
 C          3.1563151470       -1.1820696999        1.3422479425
 C          1.0247940024        0.7033791738       -0.0789721985
 C          0.2655984866       -0.4800242374       -0.1142585001
 C          0.8687006890       -1.8011800902       -0.3814712230
 C          0.7335893849       -2.8524558471        0.5188376475
 C          1.2533485303       -4.0977367238        0.2232773772
 C          1.9025133010       -4.3137834309       -0.9801347308
 C          2.0288428905       -3.2767691874       -1.8880443783
 C          1.5147237107       -2.0288050464       -1.5920047334
 C          0.3398451838        1.9493592333       -0.0426644899
 C          1.0526681759        3.1687185886       -0.1692414728
 C         -1.9644112749       -2.4727746347       -1.1193678237
 C         -2.7236635183       -3.6276230516       -1.1375519736
 H         -4.0374124068       -4.9069217512       -0.0322736519
 H         -3.9652627831       -3.5075982599        1.9987499432
 H         -2.6157779775       -1.4508080929        2.0316077618
 H         -3.6945247233       -0.0825815856       -1.5108621282
 H         -6.1276514814       -0.1083369071       -1.1449876365
 H         -7.0709209415        0.7532224804        0.9661116866
 H         -5.5681957540        1.6535974243        2.7039142797
 H         -3.1319339773        1.6776544087        2.3354734007
 H         -2.8079949505        3.2623274349        0.1924573491
 H         -1.5620029602        5.3593407450       -0.0340337742
 H          0.5707716835        6.5345908567       -0.3369335269
 H          3.0181799972        6.4852952550       -0.6041358753
 H          4.2251007189        4.3370945368       -0.5793410332
 H          4.2104124694        1.9053342650       -0.2521689586
 H          4.3989929328       -0.2943455148       -1.6673683591
 H          5.8587069806       -2.2194626097       -1.1912321576
 H          5.5866925394       -3.4859588365        0.9082340598
 H          3.8674571177       -2.8004531605        2.5393884321
 H          2.4070794421       -0.8779799842        2.0589483564
 H          0.2308225562       -2.6873345319        1.4603397160
 H          1.1495110622       -4.9044135886        0.9341192409
 H          2.3071175995       -5.2880860678       -1.2108678149
 H          2.5295026392       -3.4412940311       -2.8311243132
 H          1.6065618088       -1.2198860573       -2.3032900598
 H         -1.4064749337       -2.1781039951       -1.9963770918
 H         -2.7537842189       -4.2354251033       -2.0301279478
  66
  -98.9294944800000       0.149051154991781      !
 C         -3.4336656960       -4.0179787453       -0.0246414768
 C         -3.3832667416       -3.2345242987        1.1156303233
 C         -2.6305263010       -2.0752051655        1.1285536116
 C         -1.9150709229       -1.6875459693        0.0011967466
 C         -1.1224792314       -0.4376387642        0.0138811704
 C         -1.7841971339        0.7782834184        0.1833246085
 C         -3.2409778357        0.7905323605        0.4246904585
 C         -4.1278907515        0.2673647088       -0.5099390589
 C         -5.4871048397        0.2626120613       -0.2573878454
 C         -5.9775545600        0.7771973092        0.9309175465
 C         -5.1019288182        1.3051707545        1.8645617808
 C         -3.7426630727        1.3148437574        1.6124695535
 C         -1.0695969554        1.9815414750        0.0775243860
 C         -1.7301504016        3.2460575723        0.0655990825
 C         -1.0425072312        4.4012077977       -0.0818285861
 C          0.3743607060        4.4001948481       -0.2252074745
 C          1.1030756607        5.5778133389       -0.4019395355
 C          2.4772230629        5.5435151740       -0.5499594784
 C          3.1556284700        4.3395706168       -0.5160875890
 C          2.4649228138        3.1388736099       -0.3431591881
 C          3.1328366616        1.8903206947       -0.2322874859
 C          2.4627723042        0.7157071169       -0.0748259873
 C          3.2570380066       -0.4838564021        0.2477370921
 C          4.3157190142       -0.8865299492       -0.5584941708
 C          5.0946145492       -1.9716960263       -0.2024870413
 C          4.8393111632       -2.6554861008        0.9735471556
 C          3.8040962398       -2.2443392237        1.7959176006
 C          3.0184605326       -1.1665162753        1.4369003610
 C          1.0230301689        0.6984907426       -0.0953200247
 C          0.2655375695       -0.4851311902       -0.1525238855
 C          0.8831561517       -1.7847120952       -0.4809682154
 C          0.7498673397       -2.8944050325        0.3463621948
 C          1.2928089518       -4.1101276696       -0.0222259564
 C          1.9638728692       -4.2385883945       -1.2262665964
 C          2.0909125204       -3.1422707009       -2.0615318008
 C          1.5548691996       -1.9236678127       -1.6918253783
 C          0.3398574529        1.9434957410       -0.0667133830
 C          1.0562216908        3.1590522147       -0.2047594910
 C         -1.9705691665       -2.4795486555       -1.1402587599
 C         -2.7264956460       -3.6366961076       -1.1522011538
 H         -4.0229203684       -4.9230281105       -0.0347154177
 H         -3.9321259388       -3.5278449981        1.9986691157
 H         -2.5894773788       -1.4665321114        2.0204483574
 H         -3.7479520641       -0.1309358804       -1.4390235718
 H         -6.1667772793       -0.1460303197       -0.9907403718
 H         -7.0392246650        0.7685071812        1.1285555108
 H         -5.4790118886        1.7092594813        2.7929529015
 H         -3.0568858423        1.7205591408        2.3433032309
 H         -2.8057536785        3.2596230629        0.1575007886
 H         -1.5580891841        5.3509628320       -0.1015756393
 H          0.5775926824        6.5218284794       -0.4255323754
 H          3.0250956743        6.4644256469       -0.6877625075
 H          4.2307258293        4.3173531791       -0.6218003685
 H          4.2140523289        1.8919391906       -0.2171521489
 H          4.5134157371       -0.3561702709       -1.4790850582
 H          5.9058944578       -2.2842166540       -0.8437163887
 H          5.4484493531       -3.5026877188        1.2516961024
 H          3.6085907498       -2.7665221705        2.7212845407
 H          2.2155844121       -0.8400460303        2.0822905570
 H          0.2318269514       -2.7992842947        1.2890693734
 H          1.1898539879       -4.9631446994        0.6323209525
 H          2.3848174745       -5.1905316004       -1.5140206974
 H          2.6086594257       -3.2373632807       -3.0050781351
 H          1.6476841466       -1.0680034774       -2.3461703422
 H         -1.4236161495       -2.1810303492       -2.0229473039
 H         -2.7633906864       -4.2438332918       -2.0449924802
  66
  -98.9294776500000       0.146420138470684      !
 C         -3.4449236133       -4.0004899883        0.1512277354
 C         -2.6352705238       -3.6650760591        1.2230229076
 C         -1.8753349636       -2.5110984895        1.1858380293
 C         -1.9174497741       -1.6766329704        0.0747176882
 C         -1.1244457429       -0.4268930766        0.0348139159
 C         -1.7993804265        0.7903256634       -0.0293633435
 C         -3.2757882867        0.7985903631       -0.0797189456
 C         -3.9414334179        1.3147262641       -1.1873472413
 C         -5.3230976813        1.3017091178       -1.2433443754
 C         -6.0564450400        0.7783147274       -0.1919122277
 C         -5.4014062137        0.2693556897        0.9168716402
 C         -4.0202596871        0.2774871866        0.9731948150
 C         -1.0753940022        1.9909176196        0.0065055414
 C         -1.7365508983        3.2539977834        0.0647094521
 C         -1.0438848489        4.4131715204        0.1256491095
 C          0.3795520639        4.4148216914        0.1398286741
 C          1.1157454418        5.5980939534        0.2204076990
 C          2.4976718503        5.5718669276        0.2502786636
 C          3.1742742598        4.3680775282        0.1968832401
 C          2.4748734105        3.1626002941        0.1148479688
 C          3.1372055552        1.9121311494        0.0099843138
 C          2.4670526648        0.7300527912       -0.0763341504
 C          3.2898655399       -0.4687461480       -0.3328449106
 C          3.1360668897       -1.1919360444       -1.5107786488
 C          3.9618965807       -2.2653642223       -1.7848555858
 C          4.9550438841       -2.6274641124       -0.8907384199
 C          5.1302402644       -1.8986791925        0.2728861178
 C          4.3100679609       -0.8197687623        0.5448990506
 C          1.0291118961        0.7051002461        0.0026694455
 C          0.2729570899       -0.4792425365        0.0692874312
 C          0.8834330550       -1.8144110693        0.2337255648
 C          1.6022396225       -2.1123600450        1.3861630645
 C          2.1195072212       -3.3789635244        1.5807762385
 C          1.9213795900       -4.3649302415        0.6298731396
 C          1.1975382402       -4.0794565072       -0.5149875667
 C          0.6763046916       -2.8151292254       -0.7096526329
 C          0.3420718781        1.9516553126        0.0264467648
 C          1.0602384977        3.1732966359        0.0886471490
 C         -2.7358239721       -2.0183804406       -0.9960833366
 C         -3.4925904879       -3.1744109932       -0.9586103191
 H         -4.0380168003       -4.9025629400        0.1812681484
 H         -2.5962094787       -4.3049498758        2.0925389602
 H         -1.2485731074       -2.2488818420        2.0257879810
 H         -3.3676773203        1.7176015385       -2.0104628396
 H         -5.8293611155        1.7010329834       -2.1102944940
 H         -7.1354562807        0.7684705393       -0.2361047293
 H         -5.9690348486       -0.1365620272        1.7414141781
 H         -3.5106316908       -0.1165087943        1.8399933945
 H         -2.8160564779        3.2627653933        0.0734495425
 H         -1.5583803882        5.3623537877        0.1746577460
 H          0.5894303510        6.5409290438        0.2630210566
 H          3.0512790142        6.4974633089        0.3141436611
 H          4.2545047429        4.3486137417        0.2154717436
 H          4.2171174632        1.9131939383       -0.0476946136
 H          2.3682003869       -0.9031637870       -2.2137418324
 H          3.8311421189       -2.8221677325       -2.7011687526
 H          5.5948406116       -3.4709121574       -1.1037069883
 H          5.9102518449       -2.1700829397        0.9693181569
 H          4.4453919288       -0.2510231299        1.4539680176
 H          1.7482673224       -1.3445636253        2.1329624688
 H          2.6781826575       -3.5983713321        2.4790024200
 H          2.3273419489       -5.3539788137        0.7822592420
 H          1.0359700046       -4.8464261717       -1.2583653033
 H          0.1141306649       -2.5951277981       -1.6053796749
 H         -2.7721389935       -1.3760428629       -1.8642619945
 H         -4.1231157975       -3.4306196422       -1.7976043266
  66
  -98.9294707800000       0.145359553350904      !
 C         -3.4400649603       -4.0041476749        0.0218496821
 C         -3.4106800289       -3.2010929910        1.1490181171
 C         -2.6565862777       -2.0425831578        1.1565236053
 C         -1.9179255769       -1.6755862769        0.0374308006
 C         -1.1251187930       -0.4250836033        0.0423523236
 C         -1.7923542029        0.7907016168        0.1752791957
 C         -3.2594315826        0.7974751425        0.3482213747
 C         -4.0912467189        0.2924170063       -0.6453075831
 C         -5.4624448091        0.2808486426       -0.4704474226
 C         -6.0199680734        0.7698264470        0.6989786331
 C         -5.1992666321        1.2775194985        1.6919118672
 C         -3.8276219879        1.2942957480        1.5172902707
 C         -1.0725194861        1.9918725206        0.0978142500
 C         -1.7357101409        3.2552172900        0.1058946847
 C         -1.0495811238        4.4152867666        0.0024665128
 C          0.3683681493        4.4177056455       -0.1233354579
 C          1.0965425346        5.6020647543       -0.2485635812
 C          2.4719101297        5.5767274419       -0.3859854060
 C          3.1502288537        4.3727184160       -0.3979254160
 C          2.4589109065        3.1661631297       -0.2746052245
 C          3.1269791738        1.9149555792       -0.2345765968
 C          2.4652120329        0.7318780951       -0.1083260121
 C          3.3054826352       -0.4690848219        0.0703798535
 C          4.2480428343       -0.8152384881       -0.8919383651
 C          5.0870622946       -1.8960921258       -0.6960724987
 C          5.0097851608       -2.6313247546        0.4740611919
 C          4.0955215147       -2.2741444982        1.4504914861
 C          3.2503657065       -1.1990305576        1.2527914659
 C          1.0255085983        0.7070485659       -0.0753318016
 C          0.2658502611       -0.4764799271       -0.0962198937
 C          0.8604054448       -1.8118285476       -0.3112103092
 C          0.7265739591       -2.8120671264        0.6458326841
 C          1.2288016234       -4.0772422646        0.4112051645
 C          1.8587831665       -4.3642711170       -0.7874737311
 C          1.9822231700       -3.3789795417       -1.7515731003
 C          1.4851020308       -2.1110862729       -1.5167200860
 C          0.3389766103        1.9534857048       -0.0335788638
 C          1.0505478249        3.1760098802       -0.1386706951
 C         -1.9537635054       -2.4865818248       -1.0912585034
 C         -2.7107931149       -3.6429071342       -1.0981927089
 H         -4.0306264224       -4.9083611202        0.0156538144
 H         -3.9784315276       -3.4775991201        2.0255800044
 H         -2.6323124317       -1.4188216764        2.0385526512
 H         -3.6579626263       -0.0860139063       -1.5592845011
 H         -6.0987872847       -0.1123825500       -1.2496843886
 H         -7.0910622841        0.7555315004        0.8361929861
 H         -5.6290261922        1.6599963656        2.6064554808
 H         -3.1852146923        1.6842958594        2.2946409111
 H         -2.8125281900        3.2634113161        0.1826969063
 H         -1.5661630693        5.3646131230        0.0026646141
 H          0.5687433610        6.5449991806       -0.2405220178
 H          3.0194156520        6.5031203212       -0.4824213522
 H          4.2258377207        4.3540694979       -0.4995857338
 H          4.2081314861        1.9158757001       -0.2616910933
 H          4.3063888328       -0.2417180275       -1.8062351818
 H          5.8059452012       -2.1636547806       -1.4569909496
 H          5.6652844481       -3.4755965558        0.6281626214
 H          4.0416808918       -2.8361554987        2.3714034683
 H          2.5435776277       -0.9146615533        2.0189366717
 H          0.2381539996       -2.5904677402        1.5834273381
 H          1.1254337056       -4.8436815001        1.1653678798
 H          2.2491883303       -5.3542295903       -0.9712736468
 H          2.4671618771       -3.5996990568       -2.6913283855
 H          1.5731985739       -1.3436286984       -2.2729389742
 H         -1.3898191992       -2.2040655538       -1.9683746783
 H         -2.7320281933       -4.2645633070       -1.9814719009
  66
  -98.9292741900000       0.118058448426930      !
 C         -3.4238822731       -3.9999197812        0.2925130414
 C         -3.3352471083       -3.1417449963        1.3752700892
 C         -2.5840119180       -1.9855546192        1.2825717988
 C         -1.9076911045       -1.6752726338        0.1074612092
 C         -1.1162108929       -0.4260001253        0.0363384331
 C         -1.7853284335        0.7912986261        0.1524761098
 C         -3.2538352019        0.7890549174        0.3115197546
 C         -4.0649476529        0.2394860772       -0.6760786439
 C         -5.4373214010        0.2054450535       -0.5163303216
 C         -6.0175054320        0.7178341779        0.6319109979
 C         -5.2183530214        1.2739812586        1.6162917100
 C         -3.8450867566        1.3126831797        1.4567957556
 C         -1.0695127292        1.9936779828        0.0593612302
 C         -1.7327879885        3.2565828483        0.0375594757
 C         -1.0428794129        4.4156234177       -0.0554584701
 C          0.3785825618        4.4179494011       -0.1385888219
 C          1.1113501057        5.6015879767       -0.2420958928
 C          2.4905447331        5.5745623345       -0.3353790455
 C          3.1681116046        4.3700148557       -0.3288821986
 C          2.4724980192        3.1634723787       -0.2305571547
 C          3.1380052634        1.9111253478       -0.1717831530
 C          2.4687827602        0.7296185618       -0.0725668279
 C          3.2831918333       -0.4804192238        0.1511728193
 C          4.2872712306       -0.8344900239       -0.7433299506
 C          5.0906740886       -1.9322284433       -0.4975079196
 C          4.9145340964       -2.6778039178        0.6553817143
 C          3.9373959042       -2.3136259767        1.5662453514
 C          3.1284590444       -1.2214124288        1.3183873819
 C          1.0291282549        0.7098972625       -0.0823887311
 C          0.2719721690       -0.4752699948       -0.1258834928
 C          0.8726076359       -1.7873326568       -0.4385547918
 C          0.7521338469       -2.8759161849        0.4182710482
 C          1.2596280233       -4.1090912854        0.0571174723
 C          1.8812741094       -4.2759875536       -1.1684599044
 C          1.9958488978       -3.2005198424       -2.0320343569
 C          1.4945686970       -1.9647265725       -1.6704759823
 C          0.3441618872        1.9556163331       -0.0445832149
 C          1.0606518707        3.1762447369       -0.1334559153
 C         -2.0011367068       -2.5416459234       -0.9750524716
 C         -2.7565322266       -3.6959636524       -0.8817959279
 H         -4.0115735721       -4.9031571343        0.3643843952
 H         -3.8529540486       -3.3734020189        2.2948027937
 H         -2.5121513132       -1.3172987622        2.1288308931
 H         -3.6139242207       -0.1574598180       -1.5734463596
 H         -6.0564737121       -0.2253703088       -1.2895954977
 H         -7.0895067173        0.6849449800        0.7584080486
 H         -5.6663919952        1.6785541997        2.5123312033
 H         -3.2200976517        1.7413628454        2.2279118031
 H         -2.8114317420        3.2650380111        0.0846688266
 H         -1.5585849332        5.3652440264       -0.0761055356
 H          0.5850213735        6.5453465267       -0.2502692747
 H          3.0417289157        6.5006085161       -0.4124404429
 H          4.2463543341        4.3510383648       -0.3976781133
 H          4.2193438421        1.9105817339       -0.1578709897
 H          4.4221994005       -0.2544406353       -1.6452746013
 H          5.8578562526       -2.2066446671       -1.2069960196
 H          5.5403196696       -3.5369166083        0.8463833398
 H          3.8053019360       -2.8842113498        2.4740356145
 H          2.3722750567       -0.9309543752        2.0334753077
 H          0.2705066828       -2.7512355058        1.3767368445
 H          1.1651049789       -4.9460828794        0.7333391286
 H          2.2724339718       -5.2420136743       -1.4513774791
 H          2.4750462462       -3.3253489076       -2.9922156795
 H          1.5761031358       -1.1256773445       -2.3473856695
 H         -1.4830249189       -2.3063588876       -1.8934723364
 H         -2.8226995885       -4.3629992189       -1.7289089520
  66
  -98.9291888200000       0.107860824479542      !
 C         -3.3963196205       -4.0374839492        0.0399642670
 C         -2.6531051868       -3.6964313816        1.1572655015
 C         -1.9097499013       -2.5308281753        1.1693686795
 C         -1.9044098776       -1.6901796217        0.0622715948
 C         -1.1164056650       -0.4374511528        0.0554867309
 C         -1.7880936171        0.7810044467       -0.0418572424
 C         -3.2595513820        0.7916087082       -0.1657951396
 C         -3.8626124554        1.3409770275       -1.2933673852
 C         -5.2387075189        1.3287103198       -1.4286291077
 C         -6.0294473046        0.7736608146       -0.4366502355
 C         -5.4373666996        0.2338990910        0.6928241308
 C         -4.0616625401        0.2408960638        0.8281267539
 C         -1.0691715950        1.9838344947        0.0377231526
 C         -1.7248159558        3.2476830607        0.1258212575
 C         -1.0251580167        4.3996952440        0.2394911364
 C          0.3987923104        4.3968399077        0.2695340735
 C          1.1413173543        5.5708062668        0.4096352586
 C          2.5228492917        5.5330762939        0.4464255065
 C          3.1946353060        4.3297578360        0.3369524495
 C          2.4906893370        3.1322223851        0.1987756629
 C          3.1457456110        1.8852959569        0.0121635061
 C          2.4613873176        0.7145994642       -0.1056018774
 C          3.2091239155       -0.4863843566       -0.5196443576
 C          2.8433055474       -1.1492444795       -1.6879693749
 C          3.5704226667       -2.2349679521       -2.1352594882
 C          4.6734121592       -2.6744438705       -1.4227602302
 C          5.0546294931       -2.0105977546       -0.2694535861
 C          4.3342057198       -0.9169889837        0.1740944233
 C          1.0284882089        0.7003361848        0.0333900014
 C          0.2789052802       -0.4853241777        0.1366274817
 C          0.9254639880       -1.7736523716        0.4517949441
 C          1.6713725491       -1.8664379442        1.6237401643
 C          2.2413552496       -3.0667890101        2.0014564499
 C          2.0749178650       -4.1919233450        1.2126514251
 C          1.3327622913       -4.1089790451        0.0469083127
 C          0.7556362575       -2.9112073395       -0.3294563716
 C          0.3470730350        1.9447384665        0.0713578138
 C          1.0753186381        3.1565637842        0.1728260321
 C         -2.6577827702       -2.0364924025       -1.0541675228
 C         -3.3970467235       -3.2043463576       -1.0657574289
 H         -3.9740834855       -4.9499017577        0.0308616125
 H         -2.6516699602       -4.3421686257        2.0233001211
 H         -1.3324792973       -2.2655508702        2.0433298910
 H         -3.2436565563        1.7689606998       -2.0696512425
 H         -5.6955757124        1.7524364666       -2.3112895718
 H         -7.1040152074        0.7626699361       -0.5433210108
 H         -6.0501407809       -0.1960844534        1.4715114720
 H         -3.6019757934       -0.1762311481        1.7117747084
 H         -2.8044290260        3.2632305237        0.1197346499
 H         -1.5360397042        5.3489236242        0.3181151552
 H          0.6213779930        6.5143892959        0.4934371851
 H          3.0816455400        6.4511043173        0.5574337449
 H          4.2748313398        4.3059766113        0.3553079789
 H          4.2216756892        1.8867673854       -0.0954918308
 H          1.9863011482       -0.8014129571       -2.2469082214
 H          3.2760002376       -2.7411947641       -3.0431544657
 H          5.2366224931       -3.5284887376       -1.7686107204
 H          5.9182875537       -2.3461223183        0.2860507226
 H          4.6293671188       -0.4037337825        1.0780757962
 H          1.7945304984       -0.9881490812        2.2421307067
 H          2.8158470939       -3.1248389657        2.9146345149
 H          2.5214735317       -5.1303002466        1.5064247922
 H          1.2003078962       -4.9845059863       -0.5716034538
 H          0.1821573137       -2.8533498452       -1.2424531133
 H         -2.6551536379       -1.3885745159       -1.9190199241
 H         -3.9758703876       -3.4645985001       -1.9400877107
