  66
  -98.5112948802000       0.253378045226067      !
 C         -3.4231247228       -4.0197525525        0.1731842526
 C         -2.6268824594       -3.6682059782        1.2499385415
 C         -1.8761932385       -2.5083094787        1.2100060238
 C         -1.9138345859       -1.6841549179        0.0908469101
 C         -1.1232061282       -0.4334981907        0.0459927244
 C         -1.7961845399        0.7842063303       -0.0414299173
 C         -3.2697155170        0.7972749960       -0.1412842668
 C         -3.8891324062        1.3325538101       -1.2668524544
 C         -5.2672745828        1.3259513438       -1.3786375761
 C         -6.0438466518        0.7900065823       -0.3652217916
 C         -5.4353565441        0.2629404948        0.7614071577
 C         -4.0574677054        0.2645865435        0.8735117240
 C         -1.0739492025        1.9857238185        0.0175719144
 C         -1.7329294547        3.2490690310        0.0905838385
 C         -1.0377165841        4.4048505036        0.1856848697
 C          0.3857716184        4.4044252048        0.2152532616
 C          1.1242299724        5.5830931095        0.3345842570
 C          2.5057581462        5.5515469598        0.3746577959
 C          3.1805849409        4.3482761226        0.2903540395
 C          2.4796674703        3.1468529893        0.1714293281
 C          3.1392941390        1.8986882993        0.0216286573
 C          2.4634093572        0.7220499328       -0.0892034088
 C          3.2557583454       -0.4744933050       -0.4310363176
 C          3.0003900638       -1.1636514867       -1.6123350912
 C          3.7880413395       -2.2372866388       -1.9807269881
 C          4.8422088730       -2.6362475476       -1.1766146162
 C          5.1147805768       -1.9447104124       -0.0089826349
 C          4.3338893331       -0.8640647243        0.3560922662
 C          1.0273405255        0.7010383054        0.0166185876
 C          0.2737946956       -0.4837243052        0.1001508229
 C          0.9014072417       -1.7997626809        0.3320354251
 C          1.6447760273       -2.0037825308        1.4902645224
 C          2.1854555870       -3.2448198862        1.7671855079
 C          1.9890901778       -4.2991352146        0.8921770725
 C          1.2459907883       -4.1060389205       -0.2597642339
 C          0.7002838735       -2.8673645912       -0.5362041286
 C          0.3427456746        1.9466130624        0.0502292213
 C          1.0648524635        3.1636811064        0.1394798308
 C         -2.7196711545       -2.0412931142       -0.9844791037
 C         -3.4676933012       -3.2031216537       -0.9438131356
 H         -4.0085053073       -4.9267904289        0.2051156919
 H         -2.5903469277       -4.3004758211        2.1250945275
 H         -1.2591522832       -2.2338109876        2.0533844936
 H         -3.2811570877        1.7450537768       -2.0600403153
 H         -5.7368200420        1.7400269812       -2.2592070229
 H         -7.1201691357        0.7844104753       -0.4530314296
 H         -6.0370769867       -0.1523177805        1.5564993784
 H         -3.5849513389       -0.1432222870        1.7547414405
 H         -2.8124864990        3.2610184262        0.0864305661
 H         -1.5510719381        5.3537296736        0.2507123064
 H          0.6004123997        6.5260546831        0.3993505305
 H          3.0612356457        6.4734256708        0.4689277952
 H          4.2606984394        4.3267871960        0.3129776773
 H          4.2177242105        1.9004933331       -0.0579342226
 H          2.1831299229       -0.8466027630       -2.2440565151
 H          3.5796169048       -2.7652550120       -2.8998011939
 H          5.4527068274       -3.4799330657       -1.4622676749
 H          5.9411987583       -2.2468225440        0.6178453668
 H          4.5455777332       -0.3258517749        1.2690714687
 H          1.7896654085       -1.1818370662        2.1773840646
 H          2.7603154399       -3.3906649075        2.6701526164
 H          2.4124882219       -5.2687523904        1.1084894977
 H          1.0881086504       -4.9260491017       -0.9448669251
 H          0.1244946487       -2.7212614134       -1.4380266537
 H         -2.7521639100       -1.4073767001       -1.8588644491
 H         -4.0878390104       -3.4718910565       -1.7865997875
  66
  -98.5112433891000       0.239941467205960      !
 C         -3.4449236133       -4.0004899883        0.1512277354
 C         -2.6352705238       -3.6650760591        1.2230229076
 C         -1.8753349636       -2.5110984895        1.1858380293
 C         -1.9174497741       -1.6766329704        0.0747176882
 C         -1.1244457429       -0.4268930766        0.0348139159
 C         -1.7993804265        0.7903256634       -0.0293633435
 C         -3.2757882867        0.7985903631       -0.0797189456
 C         -3.9414334179        1.3147262641       -1.1873472413
 C         -5.3230976813        1.3017091178       -1.2433443754
 C         -6.0564450400        0.7783147274       -0.1919122277
 C         -5.4014062137        0.2693556897        0.9168716402
 C         -4.0202596871        0.2774871866        0.9731948150
 C         -1.0753940022        1.9909176196        0.0065055414
 C         -1.7365508983        3.2539977834        0.0647094521
 C         -1.0438848489        4.4131715204        0.1256491095
 C          0.3795520639        4.4148216914        0.1398286741
 C          1.1157454418        5.5980939534        0.2204076990
 C          2.4976718503        5.5718669276        0.2502786636
 C          3.1742742598        4.3680775282        0.1968832401
 C          2.4748734105        3.1626002941        0.1148479688
 C          3.1372055552        1.9121311494        0.0099843138
 C          2.4670526648        0.7300527912       -0.0763341504
 C          3.2898655399       -0.4687461480       -0.3328449106
 C          3.1360668897       -1.1919360444       -1.5107786488
 C          3.9618965807       -2.2653642223       -1.7848555858
 C          4.9550438841       -2.6274641124       -0.8907384199
 C          5.1302402644       -1.8986791925        0.2728861178
 C          4.3100679609       -0.8197687623        0.5448990506
 C          1.0291118961        0.7051002461        0.0026694455
 C          0.2729570899       -0.4792425365        0.0692874312
 C          0.8834330550       -1.8144110693        0.2337255648
 C          1.6022396225       -2.1123600450        1.3861630645
 C          2.1195072212       -3.3789635244        1.5807762385
 C          1.9213795900       -4.3649302415        0.6298731396
 C          1.1975382402       -4.0794565072       -0.5149875667
 C          0.6763046916       -2.8151292254       -0.7096526329
 C          0.3420718781        1.9516553126        0.0264467648
 C          1.0602384977        3.1732966359        0.0886471490
 C         -2.7358239721       -2.0183804406       -0.9960833366
 C         -3.4925904879       -3.1744109932       -0.9586103191
 H         -4.0380168003       -4.9025629400        0.1812681484
 H         -2.5962094787       -4.3049498758        2.0925389602
 H         -1.2485731074       -2.2488818420        2.0257879810
 H         -3.3676773203        1.7176015385       -2.0104628396
 H         -5.8293611155        1.7010329834       -2.1102944940
 H         -7.1354562807        0.7684705393       -0.2361047293
 H         -5.9690348486       -0.1365620272        1.7414141781
 H         -3.5106316908       -0.1165087943        1.8399933945
 H         -2.8160564779        3.2627653933        0.0734495425
 H         -1.5583803882        5.3623537877        0.1746577460
 H          0.5894303510        6.5409290438        0.2630210566
 H          3.0512790142        6.4974633089        0.3141436611
 H          4.2545047429        4.3486137417        0.2154717436
 H          4.2171174632        1.9131939383       -0.0476946136
 H          2.3682003869       -0.9031637870       -2.2137418324
 H          3.8311421189       -2.8221677325       -2.7011687526
 H          5.5948406116       -3.4709121574       -1.1037069883
 H          5.9102518449       -2.1700829397        0.9693181569
 H          4.4453919288       -0.2510231299        1.4539680176
 H          1.7482673224       -1.3445636253        2.1329624688
 H          2.6781826575       -3.5983713321        2.4790024200
 H          2.3273419489       -5.3539788137        0.7822592420
 H          1.0359700046       -4.8464261717       -1.2583653033
 H          0.1141306649       -2.5951277981       -1.6053796749
 H         -2.7721389935       -1.3760428629       -1.8642619945
 H         -4.1231157975       -3.4306196422       -1.7976043266
  66
  -98.5110712755000       0.199989583618492      !
 C         -3.4336656960       -4.0179787453       -0.0246414768
 C         -3.3832667416       -3.2345242987        1.1156303233
 C         -2.6305263010       -2.0752051655        1.1285536116
 C         -1.9150709229       -1.6875459693        0.0011967466
 C         -1.1224792314       -0.4376387642        0.0138811704
 C         -1.7841971339        0.7782834184        0.1833246085
 C         -3.2409778357        0.7905323605        0.4246904585
 C         -4.1278907515        0.2673647088       -0.5099390589
 C         -5.4871048397        0.2626120613       -0.2573878454
 C         -5.9775545600        0.7771973092        0.9309175465
 C         -5.1019288182        1.3051707545        1.8645617808
 C         -3.7426630727        1.3148437574        1.6124695535
 C         -1.0695969554        1.9815414750        0.0775243860
 C         -1.7301504016        3.2460575723        0.0655990825
 C         -1.0425072312        4.4012077977       -0.0818285861
 C          0.3743607060        4.4001948481       -0.2252074745
 C          1.1030756607        5.5778133389       -0.4019395355
 C          2.4772230629        5.5435151740       -0.5499594784
 C          3.1556284700        4.3395706168       -0.5160875890
 C          2.4649228138        3.1388736099       -0.3431591881
 C          3.1328366616        1.8903206947       -0.2322874859
 C          2.4627723042        0.7157071169       -0.0748259873
 C          3.2570380066       -0.4838564021        0.2477370921
 C          4.3157190142       -0.8865299492       -0.5584941708
 C          5.0946145492       -1.9716960263       -0.2024870413
 C          4.8393111632       -2.6554861008        0.9735471556
 C          3.8040962398       -2.2443392237        1.7959176006
 C          3.0184605326       -1.1665162753        1.4369003610
 C          1.0230301689        0.6984907426       -0.0953200247
 C          0.2655375695       -0.4851311902       -0.1525238855
 C          0.8831561517       -1.7847120952       -0.4809682154
 C          0.7498673397       -2.8944050325        0.3463621948
 C          1.2928089518       -4.1101276696       -0.0222259564
 C          1.9638728692       -4.2385883945       -1.2262665964
 C          2.0909125204       -3.1422707009       -2.0615318008
 C          1.5548691996       -1.9236678127       -1.6918253783
 C          0.3398574529        1.9434957410       -0.0667133830
 C          1.0562216908        3.1590522147       -0.2047594910
 C         -1.9705691665       -2.4795486555       -1.1402587599
 C         -2.7264956460       -3.6366961076       -1.1522011538
 H         -4.0229203684       -4.9230281105       -0.0347154177
 H         -3.9321259388       -3.5278449981        1.9986691157
 H         -2.5894773788       -1.4665321114        2.0204483574
 H         -3.7479520641       -0.1309358804       -1.4390235718
 H         -6.1667772793       -0.1460303197       -0.9907403718
 H         -7.0392246650        0.7685071812        1.1285555108
 H         -5.4790118886        1.7092594813        2.7929529015
 H         -3.0568858423        1.7205591408        2.3433032309
 H         -2.8057536785        3.2596230629        0.1575007886
 H         -1.5580891841        5.3509628320       -0.1015756393
 H          0.5775926824        6.5218284794       -0.4255323754
 H          3.0250956743        6.4644256469       -0.6877625075
 H          4.2307258293        4.3173531791       -0.6218003685
 H          4.2140523289        1.8919391906       -0.2171521489
 H          4.5134157371       -0.3561702709       -1.4790850582
 H          5.9058944578       -2.2842166540       -0.8437163887
 H          5.4484493531       -3.5026877188        1.2516961024
 H          3.6085907498       -2.7665221705        2.7212845407
 H          2.2155844121       -0.8400460303        2.0822905570
 H          0.2318269514       -2.7992842947        1.2890693734
 H          1.1898539879       -4.9631446994        0.6323209525
 H          2.3848174745       -5.1905316004       -1.5140206974
 H          2.6086594257       -3.2373632807       -3.0050781351
 H          1.6476841466       -1.0680034774       -2.3461703422
 H         -1.4236161495       -2.1810303492       -2.0229473039
 H         -2.7633906864       -4.2438332918       -2.0449924802
  66
  -98.5108427470000       0.157030115189764      !
 C         -3.4238822731       -3.9999197812        0.2925130414
 C         -3.3352471083       -3.1417449963        1.3752700892
 C         -2.5840119180       -1.9855546192        1.2825717988
 C         -1.9076911045       -1.6752726338        0.1074612092
 C         -1.1162108929       -0.4260001253        0.0363384331
 C         -1.7853284335        0.7912986261        0.1524761098
 C         -3.2538352019        0.7890549174        0.3115197546
 C         -4.0649476529        0.2394860772       -0.6760786439
 C         -5.4373214010        0.2054450535       -0.5163303216
 C         -6.0175054320        0.7178341779        0.6319109979
 C         -5.2183530214        1.2739812586        1.6162917100
 C         -3.8450867566        1.3126831797        1.4567957556
 C         -1.0695127292        1.9936779828        0.0593612302
 C         -1.7327879885        3.2565828483        0.0375594757
 C         -1.0428794129        4.4156234177       -0.0554584701
 C          0.3785825618        4.4179494011       -0.1385888219
 C          1.1113501057        5.6015879767       -0.2420958928
 C          2.4905447331        5.5745623345       -0.3353790455
 C          3.1681116046        4.3700148557       -0.3288821986
 C          2.4724980192        3.1634723787       -0.2305571547
 C          3.1380052634        1.9111253478       -0.1717831530
 C          2.4687827602        0.7296185618       -0.0725668279
 C          3.2831918333       -0.4804192238        0.1511728193
 C          4.2872712306       -0.8344900239       -0.7433299506
 C          5.0906740886       -1.9322284433       -0.4975079196
 C          4.9145340964       -2.6778039178        0.6553817143
 C          3.9373959042       -2.3136259767        1.5662453514
 C          3.1284590444       -1.2214124288        1.3183873819
 C          1.0291282549        0.7098972625       -0.0823887311
 C          0.2719721690       -0.4752699948       -0.1258834928
 C          0.8726076359       -1.7873326568       -0.4385547918
 C          0.7521338469       -2.8759161849        0.4182710482
 C          1.2596280233       -4.1090912854        0.0571174723
 C          1.8812741094       -4.2759875536       -1.1684599044
 C          1.9958488978       -3.2005198424       -2.0320343569
 C          1.4945686970       -1.9647265725       -1.6704759823
 C          0.3441618872        1.9556163331       -0.0445832149
 C          1.0606518707        3.1762447369       -0.1334559153
 C         -2.0011367068       -2.5416459234       -0.9750524716
 C         -2.7565322266       -3.6959636524       -0.8817959279
 H         -4.0115735721       -4.9031571343        0.3643843952
 H         -3.8529540486       -3.3734020189        2.2948027937
 H         -2.5121513132       -1.3172987622        2.1288308931
 H         -3.6139242207       -0.1574598180       -1.5734463596
 H         -6.0564737121       -0.2253703088       -1.2895954977
 H         -7.0895067173        0.6849449800        0.7584080486
 H         -5.6663919952        1.6785541997        2.5123312033
 H         -3.2200976517        1.7413628454        2.2279118031
 H         -2.8114317420        3.2650380111        0.0846688266
 H         -1.5585849332        5.3652440264       -0.0761055356
 H          0.5850213735        6.5453465267       -0.2502692747
 H          3.0417289157        6.5006085161       -0.4124404429
 H          4.2463543341        4.3510383648       -0.3976781133
 H          4.2193438421        1.9105817339       -0.1578709897
 H          4.4221994005       -0.2544406353       -1.6452746013
 H          5.8578562526       -2.2066446671       -1.2069960196
 H          5.5403196696       -3.5369166083        0.8463833398
 H          3.8053019360       -2.8842113498        2.4740356145
 H          2.3722750567       -0.9309543752        2.0334753077
 H          0.2705066828       -2.7512355058        1.3767368445
 H          1.1651049789       -4.9460828794        0.7333391286
 H          2.2724339718       -5.2420136743       -1.4513774791
 H          2.4750462462       -3.3253489076       -2.9922156795
 H          1.5761031358       -1.1256773445       -2.3473856695
 H         -1.4830249189       -2.3063588876       -1.8934723364
 H         -2.8226995885       -4.3629992189       -1.7289089520
  66
  -98.5107973241000       0.149660788759717      !
 C         -3.3963196205       -4.0374839492        0.0399642670
 C         -2.6531051868       -3.6964313816        1.1572655015
 C         -1.9097499013       -2.5308281753        1.1693686795
 C         -1.9044098776       -1.6901796217        0.0622715948
 C         -1.1164056650       -0.4374511528        0.0554867309
 C         -1.7880936171        0.7810044467       -0.0418572424
 C         -3.2595513820        0.7916087082       -0.1657951396
 C         -3.8626124554        1.3409770275       -1.2933673852
 C         -5.2387075189        1.3287103198       -1.4286291077
 C         -6.0294473046        0.7736608146       -0.4366502355
 C         -5.4373666996        0.2338990910        0.6928241308
 C         -4.0616625401        0.2408960638        0.8281267539
 C         -1.0691715950        1.9838344947        0.0377231526
 C         -1.7248159558        3.2476830607        0.1258212575
 C         -1.0251580167        4.3996952440        0.2394911364
 C          0.3987923104        4.3968399077        0.2695340735
 C          1.1413173543        5.5708062668        0.4096352586
 C          2.5228492917        5.5330762939        0.4464255065
 C          3.1946353060        4.3297578360        0.3369524495
 C          2.4906893370        3.1322223851        0.1987756629
 C          3.1457456110        1.8852959569        0.0121635061
 C          2.4613873176        0.7145994642       -0.1056018774
 C          3.2091239155       -0.4863843566       -0.5196443576
 C          2.8433055474       -1.1492444795       -1.6879693749
 C          3.5704226667       -2.2349679521       -2.1352594882
 C          4.6734121592       -2.6744438705       -1.4227602302
 C          5.0546294931       -2.0105977546       -0.2694535861
 C          4.3342057198       -0.9169889837        0.1740944233
 C          1.0284882089        0.7003361848        0.0333900014
 C          0.2789052802       -0.4853241777        0.1366274817
 C          0.9254639880       -1.7736523716        0.4517949441
 C          1.6713725491       -1.8664379442        1.6237401643
 C          2.2413552496       -3.0667890101        2.0014564499
 C          2.0749178650       -4.1919233450        1.2126514251
 C          1.3327622913       -4.1089790451        0.0469083127
 C          0.7556362575       -2.9112073395       -0.3294563716
 C          0.3470730350        1.9447384665        0.0713578138
 C          1.0753186381        3.1565637842        0.1728260321
 C         -2.6577827702       -2.0364924025       -1.0541675228
 C         -3.3970467235       -3.2043463576       -1.0657574289
 H         -3.9740834855       -4.9499017577        0.0308616125
 H         -2.6516699602       -4.3421686257        2.0233001211
 H         -1.3324792973       -2.2655508702        2.0433298910
 H         -3.2436565563        1.7689606998       -2.0696512425
 H         -5.6955757124        1.7524364666       -2.3112895718
 H         -7.1040152074        0.7626699361       -0.5433210108
 H         -6.0501407809       -0.1960844534        1.4715114720
 H         -3.6019757934       -0.1762311481        1.7117747084
 H         -2.8044290260        3.2632305237        0.1197346499
 H         -1.5360397042        5.3489236242        0.3181151552
 H          0.6213779930        6.5143892959        0.4934371851
 H          3.0816455400        6.4511043173        0.5574337449
 H          4.2748313398        4.3059766113        0.3553079789
 H          4.2216756892        1.8867673854       -0.0954918308
 H          1.9863011482       -0.8014129571       -2.2469082214
 H          3.2760002376       -2.7411947641       -3.0431544657
 H          5.2366224931       -3.5284887376       -1.7686107204
 H          5.9182875537       -2.3461223183        0.2860507226
 H          4.6293671188       -0.4037337825        1.0780757962
 H          1.7945304984       -0.9881490812        2.2421307067
 H          2.8158470939       -3.1248389657        2.9146345149
 H          2.5214735317       -5.1303002466        1.5064247922
 H          1.2003078962       -4.9845059863       -0.5716034538
 H          0.1821573137       -2.8533498452       -1.2424531133
 H         -2.6551536379       -1.3885745159       -1.9190199241
 H         -3.9758703876       -3.4645985001       -1.9400877107
