  67
       -107.56662642
 O          2.0409105021        0.2009420570       -1.8529666946
 P          2.3932035862        0.0797146270       -0.4334185139
 C          1.5752917239        1.2962948193        0.6421040620
 C          1.1656479903        2.4785041210        0.0444191623
 C          0.5931854225        3.4789760536        0.8085563969
 C          0.4505686473        3.3049572554        2.1750680882
 C          0.8574814604        2.1219504043        2.7728971612
 C          1.4112413052        1.1113849249        2.0081778825
 C          4.1726095764        0.3038869865       -0.1195035341
 C          4.7132689585        0.3854461617        1.1573712479
 C          6.0763226538        0.5556869142        1.3147383275
 C          6.9000424657        0.6468048256        0.2031115276
 C          6.3609765258        0.5707915288       -1.0704290100
 C          4.9971450699        0.4012476145       -1.2307047084
 C          1.9849701033       -1.5470567240        0.2693144628
 C          2.9252173303       -2.5192177778        0.6944085611
 C          2.5110187588       -3.8028176275        1.0904715603
 C          1.2005148785       -4.1902899595        1.0699394080
 C          0.2201610218       -3.2381476774        0.6328055892
 C          0.6698050472       -1.9176910300        0.2590287310
 O         -0.3743657932       -1.1400431861       -0.1093641349
 C         -1.4907507746       -1.9300975318       -0.0367178190
 C         -2.7631149829       -1.5861335169       -0.3833966797
 P         -3.3230218388        0.0385184787       -0.9469715225
 O         -4.5771515056       -0.0301650129       -1.7093330866
 C         -1.9671806927        0.7967463425       -1.8961814993
 C         -1.2718986029        0.0206705209       -2.8104825021
 C         -0.3370608295        0.6135387409       -3.6385873497
 C         -0.1159678166        1.9784375091       -3.5646421635
 C         -0.8245017861        2.7534083997       -2.6614478380
 C         -1.7531425063        2.1632684599       -1.8219874553
 C         -3.4874019704        0.9861423542        0.6004384431
 C         -4.7490825652        1.4694713352        0.9159425583
 C         -4.9499903629        2.1429658541        2.1076658030
 C         -3.8928211918        2.3163291539        2.9853793647
 C         -2.6340679795        1.8272415526        2.6691406886
 C         -2.4242514603        1.1618885415        1.4758747013
 C         -3.7793171979       -2.6035971204       -0.2305709035
 C         -3.4747439705       -3.8721053292        0.2386624777
 C         -2.1902219850       -4.2292874500        0.5824883254
 C         -1.1484090207       -3.2403773997        0.4352372251
 H          1.2953446248        2.5869774606       -1.0222947714
 H          0.2657290727        4.3969267714        0.3432137532
 H          0.0159183960        4.0903992172        2.7761540665
 H          0.7452369284        1.9873011398        3.8397141698
 H          1.7066444114        0.1771785638        2.4667492670
 H          4.0694123749        0.3172290964        2.0218935151
 H          6.4998632691        0.6185689281        2.3066861740
 H          7.9641223705        0.7798223965        0.3324439943
 H          7.0031728930        0.6446887111       -1.9357330982
 H          4.5484751226        0.3416820868       -2.2117461635
 H          3.9731158096       -2.2640973157        0.7009580380
 H          3.2682012346       -4.5032238595        1.4122641377
 H          0.8906806824       -5.1794854125        1.3631816878
 H         -1.4675831340       -1.0418384931       -2.8670842994
 H          0.2210093134        0.0119080645       -4.3392616193
 H          0.6143993227        2.4397341068       -4.2130371688
 H         -0.6554441278        3.8200395546       -2.6104795871
 H         -2.3116267170        2.7561198720       -1.1091386881
 H         -5.5547086369        1.3128088746        0.2132648782
 H         -5.9292999095        2.5267905030        2.3539835998
 H         -4.0481395723        2.8318390010        3.9220529043
 H         -1.8144127907        1.9620455582        3.3584583101
 H         -1.4445815261        0.7873014431        1.2156213551
 H         -4.7841137526       -2.3310321168       -0.5109885014
 H         -4.2694135993       -4.5978084285        0.3320612149
 H         -1.9423136815       -5.2127437106        0.9436232159
  67
       -107.56661618
 O          4.5027525823        0.0143839748       -0.4307411756
 P          3.0920253800       -0.0576960528       -0.0290478559
 C          2.0812833939        1.1740693891       -0.9145130657
 C          1.3712236349        0.8551344040       -2.0603194101
 C          0.7266706271        1.8561305166       -2.7661679337
 C          0.7939206581        3.1685806056       -2.3292797260
 C          1.5259837651        3.4902657121       -1.1971979732
 C          2.1771640904        2.4928278397       -0.4940789480
 C          2.8614797392        0.2418194467        1.7547166609
 C          3.9613462078        0.7220225218        2.4524207867
 C          3.8743440967        0.9390480385        3.8158348496
 C          2.6929635937        0.6598182204        4.4833316801
 C          1.5989146111        0.1692473837        3.7880290723
 C          1.6777989529       -0.0372859796        2.4231188425
 C          2.3593596156       -1.6866931638       -0.3302224722
 C          3.2929471759       -2.7647117914       -0.5149330321
 C          2.8737965226       -4.0809492429       -0.6899593904
 C          1.5441956724       -4.4174072818       -0.6984884884
 C          0.5782361466       -3.3617004844       -0.5170178045
 C          1.0342501711       -2.0091211989       -0.3422742964
 O         -0.0328370068       -1.1638170316       -0.1986830213
 C         -1.1534880887       -1.9336115522       -0.2627833120
 C         -2.4530744270       -1.5232414900       -0.1919292331
 P         -3.0601933090        0.1781723781       -0.0178802342
 O         -4.4938711963        0.2029179818        0.3029395748
 C         -2.7166165403        1.0147681404       -1.6030260684
 C         -2.5308581737        0.3014308850       -2.7762673697
 C         -2.4507344230        0.9736430844       -3.9841336963
 C         -2.5577505714        2.3541326076       -4.0190357700
 C         -2.7463261492        3.0668435671       -2.8455893631
 C         -2.8331825877        2.3972950791       -1.6392510629
 C         -2.0576128181        1.0183083251        1.2471974738
 C         -2.5446257020        0.9639565466        2.5467353347
 C         -1.8852407589        1.6343414862        3.5602433520
 C         -0.7453663075        2.3681075835        3.2713413803
 C         -0.2593410738        2.4181023427        1.9751610003
 C         -0.9081101215        1.7384180009        0.9594057897
 C         -3.4596043510       -2.5369602773       -0.2729479506
 C         -3.1393439887       -3.8862444227       -0.4462538774
 C         -1.8413810274       -4.3103186017       -0.5372377139
 C         -0.7996149477       -3.3204480369       -0.4481234968
 H          1.3312619939       -0.1691838292       -2.4035464894
 H          0.1726157030        1.6129119906       -3.6602333093
 H          0.2833796287        3.9438441028       -2.8808549896
 H          1.5921324839        4.5174077915       -0.8691322811
 H          2.7709262179        2.7223307371        0.3813979698
 H          4.8764869369        0.9135720774        1.9103046412
 H          4.7281315452        1.3180693559        4.3583423527
 H          2.6249546979        0.8189165190        5.5496285653
 H          0.6797051306       -0.0526051074        4.3100664603
 H          0.8216835137       -0.4053085540        1.8803452444
 H          4.3391065710       -2.5038299014       -0.5238959380
 H          3.6202976056       -4.8494221280       -0.8262566449
 H          1.2036440437       -5.4294264169       -0.8366076317
 H         -2.4572761522       -0.7772501128       -2.7433091317
 H         -2.3127788521        0.4183322300       -4.9009629930
 H         -2.5001335830        2.8753482988       -4.9636270297
 H         -2.8376221353        4.1428644764       -2.8745022228
 H         -3.0012848712        2.9358746172       -0.7162067350
 H         -3.4522905099        0.4092225639        2.7389254568
 H         -2.2638568643        1.5952202192        4.5714108765
 H         -0.2341807720        2.9038637353        4.0577666408
 H          0.6274836358        2.9921592300        1.7526083869
 H         -0.5312768768        1.7714877216       -0.0516387340
 H         -4.4849995750       -2.2135421952       -0.1920390363
 H         -3.9435844620       -4.6047664655       -0.5036673628
 H         -1.5784703951       -5.3467919460       -0.6646159978
  67
       -107.56638970
 O          2.6895045850        0.7387843847       -1.3426162210
 P          2.7467590725        0.1875713043        0.0185045067
 C          1.6795137951        1.0470396901        1.2123113103
 C          1.4615229470        2.3950409719        0.9705719922
 C          0.6584586108        3.1296511031        1.8232723804
 C          0.0674625573        2.5137902237        2.9134911004
 C          0.2930419559        1.1696709831        3.1605708246
 C          1.1076994294        0.4357798113        2.3192658304
 C          4.4119821192        0.2449184298        0.7497543442
 C          4.6684697838       -0.2405917989        2.0256201524
 C          5.9501887519       -0.1719252040        2.5384034844
 C          6.9717403152        0.3850193661        1.7835508692
 C          6.7139696673        0.8752667568        0.5139387602
 C          5.4320300327        0.8062287548       -0.0028904651
 C          2.2792764459       -1.5685757561        0.1018816306
 C          3.2091952166       -2.6557599164        0.1270657189
 C          2.7647502799       -3.9825020781        0.1175544547
 C          1.4366246486       -4.3148565473        0.0597514852
 C          0.4687052071       -3.2466555770        0.0230828461
 C          0.9597122308       -1.8895192542        0.0305461152
 O         -0.0696005998       -1.0025252558       -0.0027249310
 C         -1.2101830899       -1.7415570939       -0.0214775894
 C         -2.4742285279       -1.2454499117       -0.0947415736
 P         -2.7005216306        0.5583998052       -0.0269725373
 O         -2.5740686819        1.1053399084        1.3311790230
 C         -4.3411373166        0.8342372957       -0.7643322269
 C         -5.2781862170        1.5314258662       -0.0173000619
 C         -6.5385453392        1.7685979905       -0.5374021993
 C         -6.8574939974        1.3105360070       -1.8051044583
 C         -5.9183797949        0.6174950481       -2.5545085506
 C         -4.6585084069        0.3798829618       -2.0379263100
 C         -1.5207682227        1.2567799545       -1.2196911651
 C         -1.0465915153        0.5716738143       -2.3295690055
 C         -0.1333162721        1.1802429099       -3.1695244953
 C          0.2891912907        2.4751752090       -2.9177732173
 C         -0.2025365955        3.1672078050       -1.8240702550
 C         -1.1048238608        2.5563606448       -0.9728873131
 C         -3.5431763226       -2.1962250502       -0.1002979698
 C         -3.2832932983       -3.5708706202       -0.0674026063
 C         -2.0125492288       -4.0796835114       -0.0058499111
 C         -0.9082846607       -3.1526683021        0.0093643062
 H          1.9167752903        2.8442963764        0.0993003933
 H          0.4862106387        4.1795585738        1.6339924462
 H         -0.5765520129        3.0788378668        3.5704330414
 H         -0.1756642211        0.6911392370        4.0075505488
 H          1.2825798180       -0.6139359192        2.5118199905
 H          3.8654441495       -0.6714742080        2.6062767827
 H          6.1562343337       -0.5515674055        3.5287496572
 H          7.9715539615        0.4371441333        2.1892132795
 H          7.5115744448        1.3088854994       -0.0715786724
 H          5.2004013692        1.1770922506       -0.9910470577
 H          4.2641742286       -2.4315083774        0.1406739623
 H          3.5057450185       -4.7685099450        0.1430542349
 H          1.1023611928       -5.3384874038        0.0364366730
 H         -5.0006599979        1.8736797457        0.9693283850
 H         -7.2716123620        2.3089258927        0.0435712161
 H         -7.8406500177        1.4939590245       -2.2133867337
 H         -6.1716953850        0.2634501195       -3.5433259627
 H         -3.9194894745       -0.1575283001       -2.6148718087
 H         -1.3740386137       -0.4405193230       -2.5247027107
 H          0.2587721257        0.6409001243       -4.0189248447
 H          1.0096037328        2.9409513452       -3.5732456253
 H          0.1241687253        4.1789047883       -1.6305178121
 H         -1.4867138618        3.0641361215       -0.0986031716
 H         -4.5578972368       -1.8308119270       -0.1174549606
 H         -4.1243966681       -4.2491132478       -0.0774524471
 H         -1.8205332915       -5.1387018028        0.0358780276
  67
       -107.56633418
 O          1.1990096823        1.1331783001       -0.7184843756
 P          1.9708486602        0.5853179071        0.4048318161
 C          1.6296890627        1.4137380936        1.9947081287
 C          1.8550251589        2.7832932970        2.0287435898
 C          1.6367262035        3.4922628600        3.1947701163
 C          1.1866019582        2.8312679235        4.3276869079
 C          0.9502717702        1.4673025577        4.2901189838
 C          1.1732675517        0.7543493209        3.1242184028
 C          3.7699944337        0.7735369807        0.1947115937
 C          4.6504009255        0.7898467683        1.2685342796
 C          6.0080021693        0.9216938099        1.0390729693
 C          6.4866011963        1.0364386790       -0.2567212333
 C          5.6079382887        1.0252556435       -1.3278489224
 C          4.2496422813        0.8938384521       -1.1011631283
 C          1.7233171371       -1.1887406346        0.6889592805
 C          2.7159859513       -2.0769930739        1.1942305710
 C          2.4506941208       -3.4435963122        1.3549073850
 C          1.2403401547       -4.0021297928        1.0421502999
 C          0.2121464626       -3.1408422637        0.5298824386
 C          0.5082210110       -1.7375328889        0.3802871732
 O         -0.5690839618       -1.0701848436       -0.0862927843
 C         -1.5557901502       -1.9924602149       -0.2591545707
 C         -2.8273638814       -1.7388101295       -0.6823195280
 P         -3.4105662700       -0.0879688492       -1.1357624967
 O         -4.8759732020        0.0116412157       -1.1621012002
 C         -2.6282171309        0.2360005634       -2.7495873445
 C         -3.4695435708        0.2776631955       -3.8525701049
 C         -2.9379471167        0.4920439292       -5.1118290053
 C         -1.5707691043        0.6557083952       -5.2640136805
 C         -0.7345150579        0.6095463267       -4.1589429988
 C         -1.2563621057        0.3928294261       -2.8961479150
 C         -2.6239816749        1.0368068657        0.0681986843
 C         -2.0404952824        2.2347739872       -0.3060667880
 C         -1.5193187859        3.0731891946        0.6639867742
 C         -1.5930847068        2.7199391721        1.9999344911
 C         -2.1851235475        1.5244188326        2.3729341288
 C         -2.7056450766        0.6834419830        1.4077289335
 C         -3.7155623040       -2.8660515080       -0.7841861227
 C         -3.2973502342       -4.1446588312       -0.4389605133
 C         -2.0180970774       -4.4030681475        0.0028727959
 C         -1.1001577661       -3.2979276398        0.1124089993
 H          2.2016169843        3.2762867896        1.1303485281
 H          1.8166715185        4.5571262785        3.2247028611
 H          1.0168189060        3.3822149392        5.2414115942
 H          0.5963488029        0.9561381722        5.1736765646
 H          0.9988651770       -0.3121583773        3.0910740613
 H          4.2691788568        0.7113179098        2.2775848564
 H          6.6958924334        0.9363200794        1.8719250810
 H          7.5478222593        1.1381134226       -0.4305165777
 H          5.9828193113        1.1191781484       -2.3365223060
 H          3.5408353581        0.8924920711       -1.9169692552
 H          3.6876367460       -1.6837022358        1.4445733569
 H          3.2405294044       -4.0720587693        1.7407829158
 H          1.0455871559       -5.0542645005        1.1655638155
 H         -4.5327272025        0.1562777531       -3.7032160757
 H         -3.5898331736        0.5329524998       -5.9724503178
 H         -1.1545949182        0.8221605763       -6.2472801721
 H          0.3301910019        0.7463889021       -4.2767302390
 H         -0.6052057297        0.3720436053       -2.0355104473
 H         -1.9865991117        2.5073757371       -1.3501585480
 H         -1.0531411847        4.0034717488        0.3753104061
 H         -1.1896698034        3.3776178869        2.7557246491
 H         -2.2411897733        1.2510526553        3.4169852066
 H         -3.1793309004       -0.2509666690        1.6811625558
 H         -4.7193068922       -2.6723691707       -1.1270695471
 H         -3.9989761550       -4.9614570863       -0.5266894122
 H         -1.6913353278       -5.3966909670        0.2593707826
  67
       -107.56582908
 O          2.6349613136        0.8796115149       -1.2014899768
 P          2.7370698709        0.2466090407        0.1206069129
 C          1.6573673700        0.9914148844        1.3807375428
 C          1.4349786770        2.3549665893        1.2607020148
 C          0.6064666098        3.0031148395        2.1579818766
 C         -0.0088015908        2.2851397006        3.1695741420
 C          0.2233275001        0.9256030292        3.2979593883
 C          1.0658123848        0.2780758931        2.4136523587
 C          4.4138515787        0.3156977073        0.8217653414
 C          4.7087861042       -0.2059056454        2.0747633897
 C          5.9995315251       -0.1230203988        2.5627286935
 C          6.9914576825        0.4828759618        1.8058965760
 C          6.6952323483        1.0083588139        0.5590562326
 C          5.4043846091        0.9255456732        0.0672985011
 C          2.3148918723       -1.5226838244        0.1074521278
 C          3.2606630726       -2.5938322799        0.1299966426
 C          2.8394023561       -3.9276467000        0.0686591083
 C          1.5199131278       -4.2791560642       -0.0384659005
 C          0.5364800442       -3.2260483422       -0.0712026537
 C          1.0026519382       -1.8616754772       -0.0156232484
 O         -0.0405275353       -0.9919716457       -0.0465455281
 C         -1.1706411222       -1.7493959297       -0.1027215445
 C         -2.4470891691       -1.2893750278       -0.1771445500
 P         -2.8454127565        0.4816579778       -0.0681156814
 O         -3.0367442177        0.9423909354        1.3144607759
 C         -4.3385980340        0.6491656065       -1.0987469664
 C         -5.3948046271        1.3898504187       -0.5908752535
 C         -6.5428940557        1.5638979567       -1.3438427392
 C         -6.6314044858        0.9993973605       -2.6055758895
 C         -5.5743308966        0.2606121968       -3.1150902470
 C         -4.4257546115        0.0873782528       -2.3659934486
 C         -1.5714026644        1.3934204417       -0.9845848098
 C         -0.9448069139        0.9068005848       -2.1235836057
 C         -0.0160066986        1.6912450282       -2.7797959955
 C          0.2686580504        2.9662415837       -2.3179398306
 C         -0.3703747033        3.4586261244       -1.1927350631
 C         -1.2882103722        2.6703330105       -0.5232598315
 C         -3.4918160682       -2.2711830019       -0.2015690971
 C         -3.2029169358       -3.6382781537       -0.2019846297
 C         -1.9185071453       -4.1131316611       -0.1491615482
 C         -0.8411276570       -3.1557485404       -0.1025749009
 H          1.9069187301        2.8862489659        0.4463488107
 H          0.4317835347        4.0651014838        2.0637070814
 H         -0.6746097251        2.7828409985        3.8585717343
 H         -0.2598239496        0.3678100286        4.0864788330
 H          1.2498613050       -0.7826656863        2.5175092592
 H          3.9277217901       -0.6733944146        2.6575447822
 H          6.2360408602       -0.5294242586        3.5354105756
 H          7.9983428299        0.5457041928        2.1921392622
 H          7.4697367237        1.4801105614       -0.0278835634
 H          5.1427018589        1.3233710461       -0.9026029036
 H          4.3109601386       -2.3544662985        0.1836160186
 H          3.5927731698       -4.7017594619        0.0939087644
 H          1.2031901265       -5.3066990165       -0.1011169620
 H         -5.3008722251        1.8118667005        0.3993579623
 H         -7.3682886496        2.1378563364       -0.9486763320
 H         -7.5264070346        1.1333957223       -3.1954712400
 H         -5.6481367792       -0.1803102831       -4.0986166227
 H         -3.5997181616       -0.4900754920       -2.7553504353
 H         -1.1680235436       -0.0873974073       -2.4839973925
 H          0.4946405697        1.3076050475       -3.6499098017
 H          0.9967877478        3.5730482864       -2.8352451977
 H         -0.1500358090        4.4542835576       -0.8348781281
 H         -1.7878007017        3.0212651774        0.3685593059
 H         -4.5137045131       -1.9248265814       -0.2042632609
 H         -4.0266929717       -4.3368194356       -0.2288885619
 H         -1.6953524895       -5.1666375507       -0.1315239435
  67
       -107.56449742
 O          4.5992709407       -0.1263171258       -0.1159219463
 P          3.1566719792       -0.1392894780        0.1607627011
 C          2.2885649416        1.0831231928       -0.8757861161
 C          1.7267074043        0.7323287363       -2.0922517974
 C          1.2287771140        1.7185242407       -2.9257098343
 C          1.2894922589        3.0483302849       -2.5442723625
 C          1.8750916169        3.3997300663       -1.3386275921
 C          2.3853127864        2.4169791047       -0.5092089227
 C          2.7882698453        0.2424237466        1.9040554066
 C          3.8327657441        0.7767398775        2.6475157614
 C          3.6571400389        1.0513837124        3.9913862271
 C          2.4442201833        0.7678443364        4.5978576043
 C          1.4065244583        0.2228395251        3.8586790370
 C          1.5704259530       -0.0322187822        2.5092711725
 C          2.4035890554       -1.7528807671       -0.1790579159
 C          3.3230398537       -2.8394473880       -0.3554559520
 C          2.8914099357       -4.1374832891       -0.6271209602
 C          1.5608664685       -4.4414398569       -0.7443901003
 C          0.6068270760       -3.3749783173       -0.5742107946
 C          1.0748791051       -2.0436218554       -0.2874888460
 O          0.0165159776       -1.1866931511       -0.1635181569
 C         -1.1154370009       -1.9288486070       -0.3480831882
 C         -2.4114836754       -1.5109247200       -0.2903343278
 P         -3.0737449342        0.1437198085        0.0617393587
 O         -4.4222639902        0.0632798252        0.6359445201
 C         -3.0499186776        1.0248860267       -1.5352843706
 C         -2.1149528400        0.7917942314       -2.5328608257
 C         -2.2082987154        1.4836303065       -3.7276185743
 C         -3.2191490753        2.4109323613       -3.9216272708
 C         -4.1490599785        2.6468641864       -2.9221241409
 C         -4.0677837549        1.9478088424       -1.7319051897
 C         -1.9364216050        1.0569756641        1.1524028194
 C         -2.2532950787        1.0280404655        2.5045394204
 C         -1.5359699533        1.7977443435        3.4007409536
 C         -0.5088628736        2.6068810997        2.9423351701
 C         -0.1947337243        2.6342217772        1.5941523993
 C         -0.9018633873        1.8575807520        0.6929426970
 C         -3.4242001937       -2.5020912331       -0.5235782628
 C         -3.1114819022       -3.8341160283       -0.7960344676
 C         -1.8143789740       -4.2679568308       -0.8522379102
 C         -0.7698773532       -3.3032593579       -0.6167361110
 H          1.6949756463       -0.3072275181       -2.3901437079
 H          0.8049818234        1.4507842390       -3.8818176174
 H          0.8930386277        3.8138066926       -3.1950267586
 H          1.9413709631        4.4398327873       -1.0533261912
 H          2.8704394172        2.6695228856        0.4248416765
 H          4.7770438157        0.9615981731        2.1555577628
 H          4.4657959625        1.4765838508        4.5669406883
 H          2.3078206867        0.9663561118        5.6509258377
 H          0.4647261954       -0.0064245078        4.3347872037
 H          0.7548911374       -0.4371641193        1.9321179763
 H          4.3726115258       -2.6039709676       -0.2811544958
 H          3.6313322374       -4.9144020003       -0.7499878953
 H          1.2101441469       -5.4370718868       -0.9567290496
 H         -1.3252408330        0.0706860989       -2.3776988769
 H         -1.4972804947        1.2939714641       -4.5181867082
 H         -3.2853689260        2.9457748608       -4.8578521242
 H         -4.9393778508        3.3673280817       -3.0745841315
 H         -4.7930497151        2.0943920829       -0.9442963418
 H         -3.0808029370        0.4142297507        2.8313462131
 H         -1.7862815464        1.7804677694        4.4516668754
 H          0.0445310087        3.2229149820        3.6359029480
 H          0.5966926391        3.2755287434        1.2388195958
 H         -0.6593647618        1.8850577176       -0.3595065838
 H         -4.4494632675       -2.1732123646       -0.4693118367
 H         -3.9187229138       -4.5312264804       -0.9651009566
 H         -1.5527945345       -5.2916454154       -1.0596067785
  67
       -107.56414448
 O          0.6933354769        1.5312578586        0.1879578474
 P          1.8436850850        0.7986622987        0.7335952351
 C          2.5363939474        1.5912968552        2.2257924959
 C          3.5192804509        2.5619359856        2.1059279749
 C          3.9718113455        3.2267703210        3.2320056269
 C          3.4363374821        2.9275069368        4.4743393880
 C          2.4407334474        1.9709075362        4.5915004643
 C          1.9869970726        1.3047943128        3.4670881226
 C          3.2257927114        0.6456178548       -0.4416101178
 C          4.4994176350        0.2290697671       -0.0704977682
 C          5.4778954273        0.0820419923       -1.0356813525
 C          5.1893957485        0.3392587840       -2.3674156502
 C          3.9180093750        0.7498232738       -2.7366515680
 C          2.9358999439        0.8991823684       -1.7750224630
 C          1.5088881138       -0.9089629933        1.2133765738
 C          2.4300223859       -1.6894616039        2.0016986257
 C          2.1908226044       -3.0296447008        2.2790977803
 C          1.0773877296       -3.6895755041        1.8132125025
 C          0.1335387574       -2.9427276234        1.0218181756
 C          0.4041236012       -1.5646947207        0.7419868855
 O         -0.5881438045       -1.0264291100       -0.0128125931
 C         -1.4982467254       -2.0052793703       -0.2179471126
 C         -2.6660783758       -1.8987656808       -0.9227891980
 P         -3.2621459410       -0.3457660628       -1.6429537016
 O         -4.4063326001       -0.5474429601       -2.5425636974
 C         -1.8266102639        0.4139010547       -2.4730415599
 C         -0.9540750685       -0.3995586510       -3.1795653178
 C          0.0778385503        0.1685715758       -3.9040015803
 C          0.2301342763        1.5459683791       -3.9258754257
 C         -0.6479509012        2.3565192377       -3.2256439611
 C         -1.6824096122        1.7912425105       -2.5016150653
 C         -3.6445245509        0.6987130287       -0.2003813878
 C         -4.9889097481        0.8703334894        0.1000664948
 C         -5.3555844727        1.6153116253        1.2066646113
 C         -4.3791168606        2.1814943492        2.0100254619
 C         -3.0375695145        2.0087158154        1.7051717744
 C         -2.6617097339        1.2651823387        0.6002335150
 C         -3.4707822012       -3.0649252116       -1.0198096210
 C         -3.0824123287       -4.2696366887       -0.4233340612
 C         -1.9170482860       -4.3854392396        0.2907792813
 C         -1.0785649246       -3.2300035343        0.4106439707
 H          3.9247787344        2.7897379559        1.1292805509
 H          4.7408748794        3.9798857680        3.1413923194
 H          3.7924474520        3.4449652746        5.3530609295
 H          2.0180779904        1.7458491074        5.5598776387
 H          1.2067152370        0.5586470771        3.5406489294
 H          4.7270307659        0.0388514171        0.9681177198
 H          6.4708039665       -0.2340705964       -0.7500034971
 H          5.9584484088        0.2204872639       -3.1165666025
 H          3.6946492576        0.9533649679       -3.7737276625
 H          1.9379645857        1.2222954006       -2.0340459346
 H          3.3070738603       -1.2008452754        2.3929211772
 H          2.9108919514       -3.5677273164        2.8787714560
 H          0.8968593528       -4.7303339902        2.0213785291
 H         -1.0898284819       -1.4731094512       -3.1594953515
 H          0.7647013858       -0.4624295542       -4.4500735397
 H          1.0350486957        1.9902843096       -4.4941572192
 H         -0.5254828613        3.4294485480       -3.2423377690
 H         -2.3766762393        2.4149521103       -1.9560309348
 H         -5.7294283501        0.4263041109       -0.5497244609
 H         -6.4011061936        1.7552986145        1.4409838999
 H         -4.6643178317        2.7633245122        2.8749528243
 H         -2.2763013058        2.4578578447        2.3261501316
 H         -1.6172507008        1.1437325220        0.3571661264
 H         -4.3887153407       -2.9900647702       -1.5810210968
 H         -3.7277742133       -5.1291987934       -0.5304420367
 H         -1.6203286038       -5.3113831926        0.7549538703
  67
       -107.56414368
 O          0.7191336064        1.4849473227        0.0231233126
 P          1.8419612151        0.7849218384        0.6610299356
 C          2.4352711344        1.6373138585        2.1624872807
 C          3.2462725731        2.7521142322        2.0062619682
 C          3.6406750665        3.4796912604        3.1142027945
 C          3.2176646787        3.0967684519        4.3773381301
 C          2.3928752283        1.9945218031        4.5313840530
 C          1.9961739772        1.2651306959        3.4239136813
 C          3.2992638551        0.6234834190       -0.4201751145
 C          4.5840218421        0.3918578578        0.0561326877
 C          5.6218999863        0.2145922802       -0.8400234209
 C          5.3808124595        0.2557236601       -2.2045337339
 C          4.0974883045        0.4817010482       -2.6780908770
 C          3.0562140188        0.6597675799       -1.7865336562
 C          1.5145285773       -0.9194403901        1.1469111741
 C          2.4575180195       -1.7045172111        1.9105499899
 C          2.2186910886       -3.0404574756        2.1962005686
 C          1.0917982132       -3.6991700784        1.7548454610
 C          0.1345457947       -2.9520624984        0.9789929161
 C          0.4018847753       -1.5768845696        0.6953540088
 O         -0.6039313359       -1.0346041694       -0.0390637155
 C         -1.5176827929       -2.0095323926       -0.2298499070
 C         -2.6953291504       -1.8965989215       -0.9189599889
 P         -3.2790900625       -0.3286688094       -1.6189847646
 O         -4.4358510634       -0.5045633553       -2.5077922204
 C         -1.8359567663        0.4145975750       -2.4514278311
 C         -0.9983096581       -0.4097353917       -3.1873094151
 C          0.0527613841        0.1399557986       -3.8982651840
 C          0.2604693143        1.5102849412       -3.8762373343
 C         -0.5846634261        2.3319486855       -3.1495145666
 C         -1.6395364804        1.7856557034       -2.4404957070
 C         -3.6290810293        0.6977852663       -0.1551117641
 C         -4.9664583854        0.8625071039        0.1789354384
 C         -5.3086686111        1.5820903845        1.3098043104
 C         -4.3148840013        2.1303521252        2.1043377439
 C         -2.9804548151        1.9657600018        1.7658242838
 C         -2.6293325655        1.2479854912        0.6361606432
 C         -3.5034758474       -3.0559380716       -1.0082422155
 C         -3.1104487620       -4.2638722093       -0.4163259679
 C         -1.9372644511       -4.3854346949        0.2827776561
 C         -1.0915212584       -3.2366123543        0.3913858228
 H          3.5620476315        3.0385776016        1.0115587588
 H          4.2752734132        4.3457032379        2.9949224641
 H          3.5268135037        3.6634951482        5.2432504677
 H          2.0566662499        1.7042454413        5.5161765661
 H          1.3474972529        0.4060025602        3.5307113027
 H          4.7734327542        0.3743383996        1.1198454668
 H          6.6238795889        0.0433606749       -0.4739201967
 H          6.1957614804        0.1128180765       -2.8988510700
 H          3.9112461514        0.5181963745       -3.7415585592
 H          2.0473535367        0.8445674807       -2.1273045585
 H          3.3537495710       -1.2212929748        2.2626820808
 H          2.9500222858       -3.5818280643        2.7791624200
 H          0.9148651190       -4.7395819709        1.9673945049
 H         -1.1753159011       -1.4775172345       -3.1986773004
 H          0.7120733003       -0.5003894357       -4.4673864216
 H          1.0832742673        1.9397877000       -4.4303187191
 H         -0.4196896975        3.3989978876       -3.1323295675
 H         -2.3074536703        2.4197397153       -1.8746424823
 H         -5.7212843365        0.4323529073       -0.4637947142
 H         -6.3485880317        1.7157495328        1.5705138812
 H         -4.5808193789        2.6914762938        2.9887335549
 H         -2.2056090682        2.4003682948        2.3806443686
 H         -1.5906099150        1.1316234099        0.3675720841
 H         -4.4293304352       -2.9790154891       -1.5561663781
 H         -3.7611561250       -5.1204290354       -0.5151764975
 H         -1.6403294987       -5.3138484882        0.7421926219
