145
 energy: -197.123958588547 gnorm: 0.000050603268 xtb: 6.7.1 (edcfbbe)
C           -0.31444645984080       -8.36149777486710       -0.78489343181686
C           -0.27045380249515       -6.86357287628426       -0.76313103038295
C           -1.25180956869305       -6.11788879648880       -1.40694564802565
C           -1.21168357274352       -4.73903444636599       -1.41506048155656
C           -0.18195564596336       -4.05921845258794       -0.76423918127102
N           -0.15026590306423       -2.66414902608700       -0.77185927026584
C            1.05300722974760       -1.95648454283250       -0.70175341797106
C            1.12659399443859       -0.78180551365979        0.04753873387413
C            2.29614963304971       -0.05499147713227        0.10142560290670
C            3.42916241780826       -0.47576304381058       -0.58422992066475
C            4.73202084683552        0.28622995978779       -0.44830086481411
C            5.56463865218171        0.26933229871591       -1.70593736369853
C            6.95236975751135        0.20421227691717       -1.66570184939668
C            7.66675825474202        0.26276684472830       -2.85086549161583
C            6.96549792282743        0.39841215047009       -4.03834930573405
N            5.64623875701106        0.47105754024423       -4.09047220756631
C            4.97067148552384        0.40745080463720       -2.95895825370099
C            5.44779776742486       -0.26414020517322        0.77003347582962
C            5.89947623177597       -1.54473063073662        0.98118758478504
C            6.51134449075968       -1.87973706054985        2.19130429844853
C            6.99727581157954       -3.30649826269875        2.39279943682497
C            8.04455063554292       -3.63409168854216        1.31863364078818
C            5.80143386999442       -4.26106183161585        2.26267979824837
C            7.63740909106451       -3.52910288948649        3.76558378808525
C            6.64428399102053       -0.89031079904991        3.16046273658620
C            6.18457166397189        0.40239652437812        2.95878929879901
C            5.57833128923821        0.72108093479430        1.75782914996874
C            5.00287982335098        1.95704335807259        1.25695112673810
C            4.86994783116200        3.21187704515052        1.82228456622493
C            4.25968151979567        4.21974532484256        1.09124295228157
C            3.78569911997877        4.01178868319087       -0.20086555026350
C            3.15871922574775        5.11890675685060       -1.03423100937409
C            4.15630406831976        5.50296338209116       -2.13674731867698
C            1.85275761642336        4.62578740971757       -1.67362254297093
C            2.83744244241876        6.36758462219648       -0.20722894683562
C            3.93079166187775        2.74143185025900       -0.76284749109955
C            4.51580074906688        1.73135155578437       -0.03731442304346
C            3.36345962223883       -1.66004347085586       -1.30958879965259
C            2.19222067723998       -2.38806894548991       -1.37914125424134
C           -1.33974220268657       -1.92300766406550       -0.72873698001392
C           -1.45660452781503       -0.76903913729721       -1.50279985595698
C           -2.56140193681451        0.04444697144663       -1.37865663548449
C           -3.57978398128451       -0.27033290697631       -0.48372761563520
C           -4.65756163085458        0.75064343711153       -0.19444106787909
C           -5.14916942188964        1.45558598470491       -1.43542926381608
C           -5.49841844358783        2.80057844664016       -1.42666877269054
C           -6.01224324582958        3.37191686639757       -2.57903259893930
C           -6.17025297233114        2.57121981850892       -3.69911791920754
N           -5.84727569565978        1.28912211900881       -3.71896135917394
C           -5.35178775553068        0.75183877095895       -2.62063849642039
C           -4.08555945379301        1.68788699082009        0.85576455965900
C           -2.93244855767237        2.43367382164914        0.79307064135611
C           -2.52710311711283        3.19236539239196        1.89340396330716
C           -1.22748295292839        3.97772372480715        1.79850404912062
C           -0.07603949261979        2.99942722062048        1.51793847823498
C           -0.89838626184520        4.73994389999119        3.08490144577632
C           -1.34412079124130        4.99719273177765        0.65622472677680
C           -3.32728371246949        3.18419540047091        3.03159954039600
C           -4.49200110741199        2.43513747364411        3.10436878383936
C           -4.87080101438180        1.67106500780233        2.01580721396564
C           -5.98577099366284        0.76438905814976        1.80668650619303
C           -7.04399532377696        0.40049477675212        2.61835476273847
C           -7.96969808488753       -0.51857115563265        2.14835787956094
C           -7.86751024488594       -1.08578107946137        0.88203312498071
C           -8.86772879807403       -2.09820686198955        0.34681434292766
C           -9.98225574653414       -2.41905066959645        1.34637522156622
C           -9.51477863161782       -1.53428053655200       -0.92628466776621
C           -8.12839067297957       -3.40410433147665        0.02121142100567
C           -6.79650438941746       -0.70648569162507        0.06906895798737
C           -5.87060073507147        0.19876036595743        0.52948352676243
C           -3.49171202322370       -1.45431615012385        0.23657906967471
C           -2.39047333769888       -2.27933113565882        0.11197854137215
C            0.79865277429232       -4.80109424723651       -0.10790392614713
C            0.75217181634907       -6.18132427797847       -0.11716793004697
H            0.34560104646139       -8.78074235219411       -0.02941594020726
H           -1.32649259388466       -8.71991551834383       -0.60616147698835
H            0.00316819651977       -8.73317171249389       -1.75977451066000
H           -2.05679867876913       -6.62757536914032       -1.91707065704298
H           -1.97772579020106       -4.17601886989072       -1.92796100331278
H            0.25879250416865       -0.44290192028209        0.59400700010502
H            2.32808340927377        0.84785680308377        0.69254719195493
H            7.46534382908107        0.10785556982356       -0.71920908508856
H            8.74471775366440        0.20874342298059       -2.84996534848002
H            7.47519604331805        0.45322748948150       -4.99130608251744
H            3.89348130960635        0.45949371451160       -3.05756143548492
H            5.77574769702681       -2.28335319576722        0.20356811088854
H            7.62695955605946       -3.55331665331815        0.31876001018761
H            8.88654667785298       -2.94863275799903        1.39320992691864
H            8.41360883389445       -4.64885499538931        1.45206552766884
H            5.04474467901940       -4.01782025029132        3.00594588135109
H            5.34410342982978       -4.19448459504422        1.27929601132390
H            6.12334266306740       -5.28840822048684        2.42015645451400
H            8.50953240508398       -2.89321568622784        3.89960721764702
H            7.96159372323377       -4.56450785368191        3.85002812247464
H            6.92646984599827       -3.33413434911593        4.56517179268047
H            7.11316947846256       -1.11674779196055        4.10415443864980
H            6.29996315996147        1.14559252203225        3.73409055251370
H            5.23335389490436        3.40980738768842        2.82002876069312
H            4.16396211362040        5.18884867286782        1.55366074193918
H            5.08199287582399        5.87029596174730       -1.69808692854027
H            3.73790037759237        6.28433988168144       -2.76772425785856
H            4.39376802772724        4.64495737736590       -2.76102874854767
H            2.03526730289429        3.84882926975237       -2.41014832449583
H            1.18502809185736        4.22864762524089       -0.91368455031598
H            1.35202988765907        5.44977773167717       -2.17788632927883
H            2.33098926549405        7.09911762425920       -0.83378498131057
H            3.74218248807482        6.83199029250104        0.17734264408897
H            2.18221595346738        6.12348448468388        0.62654740180910
H            3.58562660232744        2.54079646218687       -1.76490373369967
H            4.23281382861076       -2.01128199683469       -1.84703092819365
H            2.15285747990346       -3.29506177345340       -1.96421816261801
H           -0.65862398938640       -0.50429921863489       -2.18094912385672
H           -2.63204435976209        0.93829670367695       -1.98176976342630
H           -5.36806007569397        3.39051251341642       -0.53035147661618
H           -6.28774342012042        4.41518948089194       -2.60368120349183
H           -6.57234112848679        2.96661524641362       -4.62262962374763
H           -5.09228509390774       -0.29732601551852       -2.69133346236938
H           -2.33859805574251        2.41813813049711       -0.10786733007943
H            0.87379632342519        3.53079396315483        1.48406857684928
H           -0.21141556817521        2.48156921478395        0.57178431214991
H           -0.02002140921572        2.25176886465367        2.30691169821519
H           -0.78694769438208        4.05887016519651        3.92536823314193
H           -1.66946373775877        5.47116833485661        3.31646767130895
H            0.04216464148727        5.27292752374994        2.95908742687280
H           -2.17941925979689        5.67049030792888        0.83903390484309
H           -0.43477938693591        5.59010617627762        0.58610280683045
H           -1.50588117471099        4.50671214314249       -0.29993145810205
H           -3.04605464375677        3.76400288089774        3.89559908670695
H           -5.08599245157094        2.44332700933442        4.00644252714856
H           -7.15311254668320        0.82338659441723        3.60626197741686
H           -8.78615509211140       -0.78843122964738        2.79807162769773
H          -10.66271549725542       -3.14627025246060        0.90783057914712
H           -9.57779853562221       -2.84748755136522        2.26064838963449
H          -10.55667556642823       -1.52883967523694        1.59211671929085
H          -10.02598334045761       -0.59944538820741       -0.70505263032005
H          -10.24227722694478       -2.24055950152309       -1.32080034677220
H           -8.77473442857199       -1.34137022287795       -1.69797625688354
H           -7.36404719696590       -3.25015904757043       -0.73531917308039
H           -7.64881369162056       -3.79768690886394        0.91538816871273
H           -8.82954030355388       -4.14849132958821       -0.35016336434908
H           -6.68429225902764       -1.12080795551992       -0.92132535457776
H           -4.27906088016376       -1.72145183558954        0.92586169766275
H           -2.32201709730224       -3.18588594526902        0.69524631527134
H            1.59262678681733       -4.29004044749178        0.41678606316842
H            1.52218064419808       -6.73779528828329        0.39836658182435
