145
 energy: -197.120934016202 gnorm: 0.000062824396 xtb: 6.7.1 (edcfbbe)
C            0.30946845083398       -1.38167425684200        7.91413249194638
C            0.22430423754028       -1.10704873310341        6.44350909441763
C           -0.72454391145244       -0.22719708661070        5.93647982907362
C           -0.82048438964733        0.01730085751379        4.58132581988731
C            0.03212561796802       -0.62754366371900        3.68708466022747
N           -0.06072278741218       -0.38979263218355        2.30865556936061
C            1.10686443008060       -0.29474798454054        1.54558640299726
C            2.25303406839347        0.29777160092399        2.07360760322085
C            3.40375024474423        0.39683518196894        1.31807981630603
C            3.44123113455906       -0.07116167067936        0.01079585096810
C            4.71094246604905       -0.00115941748309       -0.80979132693993
C            4.44181985987800        0.32750535288926       -2.26073623437316
C            5.20270012598647       -0.21322919026720       -3.29035683929578
C            4.95470979111551        0.18288785680626       -4.59425040904626
C            3.95925572567477        1.11946118004821       -4.82189363187583
N            3.23377321478364        1.64835845225784       -3.85109867464566
C            3.46992591081930        1.26220345540634       -2.61192718498076
C            5.48470067877818       -1.29309667052575       -0.62589688021651
C            5.07805291306043       -2.57622579653788       -0.90381893018992
C            5.93790113851728       -3.65080236132194       -0.66352274014029
C            5.45805919776744       -5.05678227430607       -0.98859262580518
C            6.50316548489532       -6.13030715874253       -0.67346534575583
C            5.12823858661645       -5.13743004749014       -2.48622491542594
C            4.20014032156831       -5.35732032496270       -0.16109120905465
C            7.19833279133712       -3.38465520384675       -0.13833648568681
C            7.61498197806613       -2.09428515377023        0.15149421572153
C            6.75512337953133       -1.03938269294705       -0.09134714438067
C            6.89915361333287        0.39248815350045        0.10171988102522
C            7.94412312494868        1.15927789749456        0.58296635269427
C            7.79219049000271        2.53541178599115        0.65776972343428
C            6.61936150072542        3.16989384837746        0.26046078447083
C            6.42731580388418        4.67631553159414        0.33640082081704
C            5.23645436501561        4.97990034873003        1.25714342134087
C            7.65464293845998        5.40557407233524        0.88952884565242
C            6.14634717433295        5.21483257921157       -1.07376082543374
C            5.57246550171705        2.38470997552393       -0.22810660198180
C            5.71200303454372        1.01924482236910       -0.29904455825676
C            2.30131257999506       -0.67499978330895       -0.50970105670293
C            1.15127290513574       -0.79099444484557        0.24292944970371
C           -1.31259385876793       -0.22802487459282        1.71064376504862
C           -2.41977163848868       -0.93554757474822        2.17969428822063
C           -3.66038473660589       -0.75547335551601        1.60486432063639
C           -3.83750400310089        0.11962899896570        0.53773666303122
C           -5.19921906339315        0.26272236114024       -0.10809187622486
C           -6.30717990034287        0.33512324980855        0.91853207474535
C           -6.13505231762294        1.02909338144343        2.11214884070652
C           -7.19433400901284        1.12785698366505        2.99733391422425
C           -8.39647026164611        0.52854412321819        2.65460964299068
N           -8.57602880101989       -0.12711124471863        1.52141282117771
C           -7.56293714329226       -0.21523551295882        0.67926858748600
C           -5.39389410721438       -0.85743500990174       -1.11408522020836
C           -5.37247140569065       -2.21673561864127       -0.88964481794401
C           -5.57471755615797       -3.09731032205117       -1.95008165512198
C           -5.57765776209496       -4.60699596332494       -1.76506071220418
C           -4.47543037264527       -5.22334063312714       -2.63826420560922
C           -6.94681533457871       -5.15905100846145       -2.18695224444454
C           -5.32345338087775       -5.02440009509982       -0.31388637778952
C           -5.78828997058526       -2.56588204785035       -3.22208630781417
C           -5.80465513692205       -1.20353696554182       -3.45897739406077
C           -5.60616761120131       -0.33883764389458       -2.39633960482642
C           -5.57472502866254        1.11045430758080       -2.32389355986956
C           -5.73700636775113        2.08648070499153       -3.28936176078810
C           -5.64782972394343        3.42022502937261       -2.92179997272297
C           -5.40227183579460        3.80720990315912       -1.60826623029662
C           -5.28645663396638        5.26302155549328       -1.18420571813274
C           -5.49393143235643        6.23920085541262       -2.34523009511401
C           -6.34816398787902        5.56057035992938       -0.11577863976658
C           -3.88349670318138        5.49988319129091       -0.60629621751008
C           -5.24742668631205        2.81146947132824       -0.64082825465537
C           -5.32704930630450        1.48630243364815       -0.99735091059970
C           -2.72941457870632        0.80439153615136        0.05571721262459
C           -1.48812267766460        0.64647379458056        0.63870441956289
C            0.98414222947726       -1.51289152928338        4.18914813702366
C            1.07645824510358       -1.74121233691887        5.54753096824273
H            1.32191434472290       -1.65812973930983        8.19921392530271
H            0.00564179729531       -0.51010813803308        8.48964185763001
H           -0.35249579145073       -2.20711703158206        8.17956766778806
H           -1.39333770792150        0.28289760068606        6.61516409648498
H           -1.55609712710508        0.71372599965301        4.20609810591062
H            2.23526978743908        0.68483302814370        3.08180985292509
H            4.28035131030790        0.85833290290270        1.74783954620029
H            5.97758966764509       -0.93496441523943       -3.07417863029682
H            5.52669835429811       -0.22463712534004       -5.41379693740639
H            3.72873083423116        1.46640031104278       -5.82060158389701
H            2.84177350358883        1.71763780350312       -1.85640895989411
H            4.09203859510582       -2.74313790452042       -1.30978598952572
H            7.40896289147350       -5.97917027580803       -1.25621063908812
H            6.75499966051601       -6.13318781551355        0.38453318857313
H            6.10230146308176       -7.11016645933945       -0.92541004083857
H            4.34302858100238       -4.43765155982790       -2.75880838035698
H            6.01158424404602       -4.90670648777129       -3.07852029687008
H            4.79373318122906       -6.14043333410810       -2.74285150321130
H            4.42397831721614       -5.28428572876443        0.90129908845214
H            3.84529600561662       -6.36422952522048       -0.37108483336741
H            3.39841638937428       -4.65972416016394       -0.38716818796931
H            7.88513339630895       -4.19193870089461        0.05713592545314
H            8.59954706559714       -1.92139099234361        0.56061676420387
H            8.86858332696109        0.69779383647420        0.89773454654349
H            8.61891134583458        3.11380258467114        1.03672211306450
H            5.42043563188424        4.58191822449142        2.25323395054344
H            4.31869152017916        4.53861916919500        0.87861673387753
H            5.08951449831081        6.05495824526437        1.33695643132708
H            8.52472988834828        5.24335094034246        0.25751685834139
H            7.45664671531785        6.47522773251237        0.91897033170655
H            7.88190419885824        5.07895087221165        1.90179478315972
H            6.97951604918577        4.98675447950494       -1.73554475583014
H            6.01550255045406        6.29451310573389       -1.04294944134196
H            5.24746075268609        4.77519122349641       -1.49691299048750
H            4.64758071928978        2.83938330033556       -0.54869834121259
H            2.30761320431227       -1.05471009113761       -1.52142726493213
H            0.27671912511122       -1.26684873081793       -0.17598839337577
H           -2.30093175458710       -1.62726436382579        3.00076610635685
H           -4.50549639120190       -1.30226240553277        1.99801588527391
H           -5.17949362457677        1.47633822279488        2.34874796818092
H           -7.08856003848956        1.65833587600834        3.93157978944573
H           -9.25531136208380        0.57315530060952        3.31147225261928
H           -7.76405576010747       -0.75744818768121       -0.23577894818369
H           -5.20344922867929       -2.58141554694059        0.10952638085661
H           -3.50513672017788       -4.81686569896518       -2.36013516763727
H           -4.64131299473741       -5.01747814390630       -3.69198195950286
H           -4.44995135066094       -6.30265772249931       -2.50264693681466
H           -7.73421537852248       -4.70981853740373       -1.58519055868094
H           -6.97611059255957       -6.23739630716958       -2.04477098495567
H           -7.15505250256157       -4.94816378665121       -3.23218216517419
H           -5.33370909259042       -6.11035410796162       -0.24278280952938
H           -4.35261829053096       -4.67458574806220        0.03026143447867
H           -6.09749302002361       -4.63870768258885        0.34575663922933
H           -5.94817442178229       -3.23068848252253       -4.05772413156895
H           -5.97230454718253       -0.82436913722389       -4.45624720669258
H           -5.92979484267136        1.81916487610705       -4.31786251217599
H           -5.77527426014341        4.16460617169700       -3.69063191886317
H           -5.40361729633740        7.26032418326172       -1.97982349742079
H           -4.74391650024670        6.09309936650926       -3.11910819655021
H           -6.48409540948146        6.12506855634095       -2.78032326329946
H           -7.34336872143978        5.36959311708795       -0.51208962905654
H           -6.29151538422196        6.60379249799153        0.18826249872760
H           -6.21050098979857        4.94159400113103        0.76651779987009
H           -3.69948826912529        4.87143563434921        0.26086276993143
H           -3.12630621743241        5.27616614264611       -1.35515423958913
H           -3.77303958149674        6.53918510113140       -0.30380861882116
H           -5.05685900484000        3.07307150733727        0.38916880270411
H           -2.83783491241746        1.48260784725002       -0.77745646532817
H           -0.64461753418800        1.20743088802297        0.26443848931663
H            1.65083960972276       -2.01943036212840        3.50652114329709
H            1.82073126204021       -2.43158612449061        5.91811175995401
