145
 energy: -197.019116694383 gnorm: 0.000136746675 xtb: 6.7.1 (edcfbbe)
C           -0.07990195858515       -8.39423582299670       -0.57255646221337
C           -0.08490930587855       -6.89917272272841       -0.59117006479584
C           -1.09532680644328       -6.20493449901909       -1.26254228568868
C           -1.10989750832754       -4.83111575157484       -1.30373789475418
C           -0.10015544899758       -4.09530531870228       -0.66634843323506
N           -0.11004222384798       -2.70824371139342       -0.71128847561495
C            1.06530601861531       -1.97832231264963       -0.66913999044008
C            1.09968924138938       -0.74525780971816        0.02322322386463
C            2.24097350304474        0.00433194979302        0.04910975088313
C            3.39944488498285       -0.41140686545203       -0.62942572587097
C            4.67838888133634        0.37170550000225       -0.49084040038752
C            5.55881090102280        0.33697503455852       -1.71113688773488
C            6.94579993574976        0.30678227821356       -1.61142280151591
C            7.70636923645847        0.34857268633911       -2.76894764104752
C            7.05127061247713        0.42535583749782       -3.98721639965292
N            5.73284190256245        0.46177472341741       -4.09323813718620
C            5.01220011128649        0.42179882122814       -2.98847820261343
C            5.31747763686006       -0.18430179215882        0.76871730014618
C            5.77415234099219       -1.45972005027179        1.00114912606831
C            6.28942630082612       -1.80287739538743        2.25144414234203
C            6.79859897408430       -3.21899837350273        2.46882489662127
C            7.94297350701115       -3.49746899364993        1.48324586848872
C            5.64803426642678       -4.20610109658136        2.22093136362302
C            7.32650242931911       -3.45076466550769        3.88710368814930
C            6.30814940029482       -0.82583351866461        3.25024319474785
C            5.84027949262092        0.45671012019846        3.03129129091315
C            5.33878579396905        0.79374008940340        1.78261712494873
C            4.80220701547513        2.02325791254671        1.25242736117202
C            4.60899212068392        3.27634414247304        1.81621202244108
C            4.05350514331435        4.28459245716496        1.04737429444506
C            3.69132071006391        4.08944600934740       -0.28459984947584
C            3.11401404345077        5.19441769744803       -1.15453900559999
C            4.14180223786546        5.53797759178790       -2.24281419249616
C            1.81132147140792        4.71404010840283       -1.81054286918651
C            2.80223975624390        6.46817208865094       -0.36357088045377
C            3.89558455033185        2.82439130644596       -0.84646719739205
C            4.42652601504625        1.81303546618057       -0.08667414442371
C            3.36829121705268       -1.64433338058370       -1.30666832085768
C            2.23663504230203       -2.41412657718016       -1.32867394054051
C           -1.30395476095919       -2.00205568863648       -0.74198407232587
C           -1.39283253726268       -0.81553462054187       -1.50470020820800
C           -2.49942673649844       -0.01998142962488       -1.41981146154465
C           -3.55738793926843       -0.34178067423086       -0.54745148780592
C           -4.60941710982838        0.68882623750210       -0.24178110948930
C           -5.07606162826883        1.46227887310015       -1.44795553149359
C           -5.40713517413057        2.81064466063187       -1.36992605722932
C           -5.90882929230972        3.44754274562885       -2.49338947781996
C           -6.06602902218279        2.70999873052521       -3.65581061073296
N           -5.75723877296417        1.42621759472004       -3.73956914380150
C           -5.28055599896352        0.82311318297809       -2.66744649105179
C           -3.97666352485709        1.54208148388250        0.84660157519015
C           -2.81804217715240        2.28123631644694        0.79148830023793
C           -2.35927509568035        2.95589793774994        1.92315260633576
C           -1.07976257003230        3.77264398309296        1.82110933359876
C            0.07304899966375        2.85315484270207        1.38899972207338
C           -0.68581063024056        4.43010562530743        3.14654005211129
C           -1.28368815401256        4.88343406099419        0.78034683398799
C           -3.10185298613265        2.85026355992330        3.10236459094611
C           -4.26416956146543        2.10508398933191        3.17235484263807
C           -4.71532205875921        1.43898220753375        2.04201235624896
C           -5.86412307401395        0.59965839244887        1.80731218410353
C           -6.91597581752907        0.21096700809424        2.62448243702008
C           -7.89810275378442       -0.61896545958454        2.11307454850415
C           -7.86969528436601       -1.07845051658739        0.79719148480254
C           -8.93839132075990       -1.98927269628922        0.21502800053528
C          -10.03551184400031       -2.34004901316616        1.22378040191851
C           -9.59700250048656       -1.28662014084446       -0.98111830958370
C           -8.28123990517667       -3.29761229601988       -0.24885175528224
C           -6.80746446471402       -0.67902762981742       -0.02063941814042
C           -5.82459421940970        0.13801636444503        0.47897631642924
C           -3.49086226770326       -1.55145232262425        0.16481883538872
C           -2.40546847365150       -2.37876251239523        0.05858843657784
C            0.91337826285253       -4.78562664851148        0.01469292595279
C            0.91319612334108       -6.16179471028441        0.04412420945017
H            0.65013853203123       -8.77368110534043        0.13767572543232
H           -1.06355267852961       -8.77835252234675       -0.30709923362477
H            0.16939963277324       -8.78170149046991       -1.56111995980545
H           -1.87345649580847       -6.76125882070605       -1.76431808269724
H           -1.88308448456148       -4.30549855898151       -1.84411510300160
H            0.22268154092904       -0.42589435244803        0.56598449985936
H            2.25823582464624        0.92838672974666        0.60544904348812
H            7.41748862028023        0.24935403394077       -0.64070877907175
H            8.78447651115540        0.32349851219490       -2.72442930224217
H            7.59714526554007        0.45984498754573       -4.92076520287335
H            3.93809840029312        0.44835359697633       -3.12785292936960
H            5.73629244315420       -2.18804481620204        0.20461377698347
H            7.61033846395836       -3.40631430119137        0.45276510119293
H            8.75532359549542       -2.79118284457256        1.64271863727421
H            8.32823846639402       -4.50469278329386        1.62894845386538
H            4.82452711147961       -3.99974799706766        2.90190050441962
H            5.27369687793422       -4.13208736446727        1.20333980967896
H            5.98682573319022       -5.22693061698052        2.38650887584732
H            8.16284891469205       -2.79100586956823        4.10611003289218
H            7.67559685445676       -4.47740892719173        3.98083569923778
H            6.54447138899562       -3.29331925233661        4.62633426125156
H            6.69299188903122       -1.06313147527440        4.22866947102091
H            5.86315866425463        1.18610743058429        3.82785057785539
H            4.88490032826274        3.46581105036592        2.84318917000920
H            3.90856730454623        5.24760558434314        1.51025731354358
H            5.06773359140836        5.88704500724264       -1.78995234172401
H            3.75626105108855        6.32224546611334       -2.89113138897100
H            4.37002357423799        4.66805201827343       -2.85345805581139
H            1.98814560601116        3.88566010087454       -2.49044285281383
H            1.10406178590015        4.38907315949224       -1.05180478935294
H            1.36004737429392        5.52430349905852       -2.37974539216567
H            2.35273954309220        7.20617532013820       -1.02514307447627
H            3.70614811794575        6.90387615258447        0.05541674618129
H            2.09958056552869        6.26498064733107        0.44193943481728
H            3.63730096863426        2.63289898819886       -1.87685807755771
H            4.24719322093121       -1.97753141849100       -1.83920287448328
H            2.21266996045793       -3.34037421615310       -1.88393724513898
H           -0.58034162136481       -0.56490944975889       -2.17099610083616
H           -2.56782024353418        0.86983374621937       -2.02827448787442
H           -5.27018392152971        3.34842294051557       -0.44245068413614
H           -6.17297656156975        4.49365831779901       -2.46558187331448
H           -6.45388811703609        3.15829610362446       -4.56091680232356
H           -5.03699933535370       -0.22591848604197       -2.78707861288358
H           -2.26755391159091        2.33691567152606       -0.13555527764881
H            1.00662064343668        3.41172790699969        1.33924455352086
H           -0.11167848711655        2.41101553119837        0.41323035490808
H            0.19602328970482        2.04657147610614        2.10953553519205
H           -0.51687196333218        3.68276472752772        3.91832678546522
H           -1.45139665403366        5.12539391429010        3.48316985907489
H            0.23931673152313        4.98766505268219        3.01242268334719
H           -2.11711281524238        5.52029780194472        1.07064915426702
H           -0.39035334637002        5.50020598251019        0.70660386328411
H           -1.49737561768001        4.47195771982071       -0.20271891826802
H           -2.77039520670128        3.35527889681639        3.99501513976490
H           -4.81068498116747        2.03760487441862        4.10180545650142
H           -6.97172980379302        0.55220371982502        3.64782718416598
H           -8.70492751919002       -0.90704200278249        2.76736621615175
H          -10.76818278516262       -2.99076404527910        0.75020922653806
H           -9.62490194268870       -2.86632953208460        2.08255447279595
H          -10.55250701524318       -1.44659725274079        1.56613248980165
H          -10.05033729090916       -0.35008812768457       -0.66251175447088
H          -10.37338337602862       -1.91900296409546       -1.40703340465280
H           -8.87319913199551       -1.06460856112929       -1.76043864542773
H           -7.53427958167902       -3.11538246810491       -1.01652295614381
H           -7.79481289473595       -3.79164287114348        0.59013770945709
H           -9.03240147881481       -3.97049302568057       -0.65747840813083
H           -6.75073418803981       -1.00808815430722       -1.04759800946082
H           -4.30555882178328       -1.81744572498484        0.82175433190879
H           -2.34952409632734       -3.29203558294041        0.63241604421197
H            1.67519442782873       -4.22660512691100        0.53720573298676
H            1.69597548191211       -6.67906192947293        0.57961887712962
