83
 energy: -130.618587548967 gnorm: 0.000184748452 xtb: 6.7.1 (edcfbbe)
N            5.64635051591242       -6.92168829477650       -0.15520597427679
C            5.74040901401223       -5.78362069618275       -0.05795031091981
C            5.86552416621975       -4.37914523890094        0.06352756162035
C            7.13421346791840       -3.80090226076775        0.14597724125527
C            7.25251219442029       -2.42843874885314        0.26831532546254
C            6.12284552534969       -1.63035456163024        0.30562064137405
C            4.85529287157991       -2.20355657510161        0.21938631188945
C            3.65384750255520       -1.36311881025782        0.25808429163204
N            2.48296035389640       -1.96967783238553        0.41212091048839
C            1.41992939098412       -1.16860516509868        0.44228139912875
C            0.09410716628298       -1.76864850836773        0.56340504475828
C           -0.05342237781501       -3.09484744050982        0.96268328581506
C           -1.32104136004464       -3.63320573014328        1.07899240959784
C           -2.43441015722840       -2.86353485303832        0.78437159275163
C           -2.30753232856658       -1.54129971945272        0.36265732828074
Si          -3.83632870468984       -0.52339775214930       -0.10991104958741
C           -5.16443306102083       -0.80550728267697        1.21163089843101
C           -4.82026960803272       -0.82625885767265        2.56099235933273
C           -5.77937490016726       -1.01182593521998        3.53961608113277
C           -7.10711083819233       -1.18215170214862        3.18377534937083
C           -7.46657671110925       -1.16732820682165        1.84665128017465
C           -6.50225838789065       -0.98022140698293        0.87249590137419
C           -4.47117579717652       -1.08458548851494       -1.80556290886442
C           -5.31247584651471       -0.25397618632986       -2.54180517249405
C           -5.80829023743512       -0.64788142056945       -3.77098712488273
C           -5.46736969568576       -1.88588359774974       -4.29016602569419
C           -4.62688422661845       -2.72180236653899       -3.57473928463193
C           -4.13549771774339       -2.32230557836491       -2.34473133929769
C           -3.40913433495767        1.31852660800598       -0.22965727229940
C           -3.94262123037185        2.25188486458456        0.65323474372385
C           -3.64650338092654        3.59806640291718        0.53260197246060
C           -2.79841709371386        4.03470050977838       -0.47111320844170
C           -2.25364160266927        3.11888453405378       -1.35524791244319
C           -2.56432581431219        1.77690736616640       -1.23794439992578
C           -1.03273604331278       -1.00653927695372        0.26626064602556
N            1.48505340031116        0.15408717710016        0.36134211243472
C            2.69985472321499        0.67327218883085        0.21197996112422
N            2.80267428288850        2.03014441441195        0.13204987978293
C            3.90353532109356        2.74880206848295       -0.33845711320596
C            5.09997362915518        2.29836010508659       -0.86979737707153
C            6.01947411422263        3.24452638386292       -1.28982601427319
C            5.75874659098766        4.60670632515873       -1.19169783123694
C            4.55860681865988        5.06083201037093       -0.67845838296076
C            3.62431595043341        4.12833756709900       -0.25279159398369
C            2.30287624534493        4.25421134987184        0.30628184507519
C            1.52658714044657        5.35309932755089        0.64378993906273
C            0.28598087806984        5.13502158756502        1.21196336821199
C           -0.17198393000654        3.84330683064648        1.44483419980285
C            0.58229609160036        2.73429490999420        1.10294381786167
C            1.82257609327251        2.94676991648630        0.52510868555494
N            3.81693621932236       -0.05212043327955        0.13777557488866
C            4.72547480074540       -3.58218448833194        0.10096469366486
H            8.01080092535044       -4.43121032039179        0.11532732964677
H            8.23209373097028       -1.97947012533010        0.33662029909780
H            6.20427275414169       -0.55985912334941        0.41098644275126
H            0.82626831118867       -3.67778111637711        1.18700113340183
H           -1.44334290468298       -4.65769850976942        1.39980833191616
H           -3.42209069862895       -3.29161420448041        0.88523339389661
H           -3.78443701600756       -0.69740206174355        2.84322590944399
H           -5.49319637791660       -1.02453158440415        4.58173873847447
H           -7.85856666128649       -1.32773346739356        3.94628616202022
H           -8.50080025161000       -1.30242311406656        1.56378906341602
H           -6.78786436251489       -0.97291896700595       -0.16985780225050
H           -5.57559764462680        0.71636994215770       -2.14377259040665
H           -6.46079411667928        0.01040586661121       -4.32680394913803
H           -5.85308402328667       -2.19639631374661       -5.25041584646864
H           -4.35397950538612       -3.68685647361807       -3.97741064291546
H           -3.47584088788693       -2.97842444910578       -1.79466390461217
H           -4.60433860592637        1.91685534589777        1.43982701749844
H           -4.07806116410185        4.30918563688134        1.22313244075140
H           -2.56197672465920        5.08441836841246       -0.56530345071111
H           -1.58943168642023        3.45451594455334       -2.13859373713327
H           -2.15402191211338        1.07000742988351       -1.94575170573571
H           -0.89489576173328        0.01539197390554       -0.05122894867672
H            5.30439039524550        1.24495778286164       -0.95716046317222
H            6.96011124078107        2.91453479469608       -1.70530048652708
H            6.50160381557233        5.31503700894324       -1.52701246830027
H            4.34651531716023        6.11702004272207       -0.61167009886720
H            1.89306471372375        6.35394618405149        0.47282337385857
H           -0.33315222903227        5.97566822432792        1.48784130305340
H           -1.13836255598284        3.69593813008369        1.90200599923085
H            0.21598955579156        1.73918614777421        1.28667481166537
H            3.74091443571330       -4.01885856880309        0.03596158912586
