83
 energy: -130.537958173145 gnorm: 0.000121948558 xtb: 6.7.1 (edcfbbe)
N            5.72334218579762       -6.93486224252469        0.35536834930134
C            5.80562460095889       -5.79110850052670        0.33589060555365
C            5.91521653459176       -4.38169907390712        0.31250829582036
C            7.18351756541972       -3.78673665375333        0.28571277406067
C            7.27862168290151       -2.40423721246717        0.26657464783492
C            6.14590403069499       -1.61917739374585        0.26964460859631
C            4.86723342924402       -2.20664080897498        0.29086090600286
C            3.68630165412488       -1.40203814634648        0.28797912480700
N            2.48972750572721       -1.96514312995452        0.40273323326473
C            1.40493692259940       -1.22399005689983        0.38910542634818
C            0.09990572679523       -1.81922197208522        0.48005828788145
C           -0.06630064214829       -3.17405132967088        0.79156395795451
C           -1.33419293023357       -3.70814658975053        0.87594288709142
C           -2.44850193191238       -2.91621320508110        0.63675968104297
C           -2.30279523753258       -1.57062017796074        0.30072812666579
Si          -3.82721154725145       -0.52217523584602       -0.12749812748587
C           -5.13108827667977       -0.81017239417843        1.21721387183980
C           -4.76285125112541       -0.84471743736795        2.55976404822581
C           -5.70617087557791       -1.03287219230554        3.55316392241964
C           -7.04076214442407       -1.19271332257125        3.21865201299484
C           -7.42333869863562       -1.16474410216899        1.88815659385458
C           -6.47515345492106       -0.97549826331982        0.89867945323171
C           -4.49596342674966       -1.04438400138270       -1.82282239498719
C           -5.35773949060000       -0.19687320113328       -2.51531002060491
C           -5.88394737254503       -0.56071225129008       -3.74104404254872
C           -5.55251473019526       -1.78339286640513       -4.30119109145034
C           -4.69077164836145       -2.63438647687664       -3.63023540352802
C           -4.16899894238416       -2.26566828120403       -2.40307436687991
C           -3.38165371092607        1.31700546967213       -0.22999818011703
C           -3.91921332362128        2.24952696747970        0.65139491101880
C           -3.62120389507886        3.59567134676636        0.53382717981217
C           -2.76670030741361        4.03248768624264       -0.46435274328422
C           -2.21612963441122        3.11695444829686       -1.34548218648635
C           -2.52881620461403        1.77516938368558       -1.23165131213004
C           -1.03361637129676       -1.03286315522031        0.23843357908109
N            1.49464067880314        0.13957108199966        0.26165677200684
C            2.69870700380907        0.67887479345619        0.18602710738117
N            2.78705690656518        2.04221490328116        0.10390560812618
C            3.86992992344500        2.76530914756304       -0.38403723310606
C            5.06087884890266        2.31315065212560       -0.92557102129902
C            5.97782427655518        3.26023742007022       -1.34803422683427
C            5.71035462039648        4.62160776427541       -1.24887942450867
C            4.51268447407648        5.07625855208864       -0.72658610959311
C            3.58231702869741        4.14403930718082       -0.29327333010982
C            2.26779266388011        4.25711360480174        0.28718808334745
C            1.47450801767469        5.33944189993844        0.63634723924300
C            0.24636761766695        5.09624374836717        1.22466166021756
C           -0.18796750837133        3.79755664069172        1.46612806363560
C            0.58491369024611        2.70384446075968        1.11745926191666
C            1.80891470308578        2.94251884100500        0.51652218738927
N            3.80211805629809       -0.03379564031426        0.18618384721409
C            4.76788130193684       -3.60485606955761        0.31536576400877
H            8.06719131694107       -4.40633225128001        0.28262291778676
H            8.25330084523106       -1.93851691512329        0.25103625035797
H            6.22222773053089       -0.54297799386155        0.26880539541123
H            0.80781176012438       -3.78029676436049        0.97275989554920
H           -1.46270518487119       -4.75071012303431        1.12928234388292
H           -3.43817507972609       -3.34261882076912        0.71436964131851
H           -3.72145839661184       -0.72552174612018        2.82475503982978
H           -5.40204854817866       -1.05660960557217        4.58986904656906
H           -7.77968609510504       -1.34132391779170        3.99263590775081
H           -8.46292193082614       -1.29172150019448        1.62190591223643
H           -6.77877063263506       -0.95835090465003       -0.13838415519425
H           -5.61340788082591        0.76193184064736       -2.08564492194069
H           -6.55262991783380        0.10952435086034       -4.26218296072523
H           -5.96180173019955       -2.06988085831255       -5.25907270768267
H           -4.42480805888923       -3.58719144400058       -4.06510052990219
H           -3.49255499713544       -2.93292645707557       -1.88834550707373
H           -4.58598583572006        1.91413952749019        1.43348573764876
H           -4.05667075062413        4.30641609991709        1.22217705864836
H           -2.52972260388354        5.08224088488849       -0.55680734260786
H           -1.54688983933786        3.45286960080277       -2.12442558585341
H           -2.11384733786116        1.06832604933998       -1.93665009522791
H           -0.88782419658670        0.00684334260231       -0.01396468993234
H            5.25992224211381        1.25747889119794       -1.01655258001185
H            6.91672091912720        2.93415488587608       -1.76942568487440
H            6.44754644653568        5.33157446924045       -1.59256584275801
H            4.30305623834819        6.13264543204469       -0.65709590659903
H            1.81587569373294        6.34787942406029        0.45901808958109
H           -0.38173236279803        5.92563465500301        1.51325918358488
H           -1.14328284276165        3.63481548786112        1.94030459103818
H            0.24937033003722        1.69871426889850        1.31554869332219
H            3.79167761242981       -4.06478961480062        0.33232265188138
