85
 energy: -121.113791921107 gnorm: 0.000070414315 xtb: 6.7.1 (edcfbbe)
C            3.15583440381801        2.73464592910427       -2.40813522316430
C            3.56770430543508        1.55392757159348       -1.53912379569903
C            3.63499581437638        0.25284371268567       -2.33475818177829
C            4.12124225253949       -0.91148599316579       -1.47464519218650
C            4.10162105471537       -2.25530113940490       -2.20607223229121
C            2.69239895049994       -2.85164142908275       -2.32955543375380
N            2.14587318726039       -3.21147659140119       -1.03835287594244
C            1.25186087224027       -2.36448614491273       -0.37682775484729
C            0.57070201017025       -1.36054239016238       -0.95540556397549
C           -0.33865027279223       -0.42249927077226       -0.23388770072938
C           -0.37870993228476       -0.59435354244932        1.25700584577477
C           -1.01789269094773        0.26118702301858        2.07120136575641
C           -1.74227163283350        1.50315224308806        1.63634044361606
C           -2.87786304097243        1.27261167863887        0.66744887301715
C           -3.95165851656458        0.42172959221240        0.79146509100750
C           -4.90679234608301        0.37414960771365       -0.22708027046810
C           -6.06505669036569       -0.52412265195861       -0.11596307482758
C           -6.51183986658239       -1.25112365272531       -1.21720757357638
C           -7.60469014925811       -2.09079063981733       -1.11077472178033
C           -8.27333814002843       -2.21473088774235        0.09555221505536
C           -7.83869352880476       -1.49635565711987        1.19681991391468
C           -6.74249188743604       -0.66075263483536        1.09368452076162
C           -4.75769151040808        1.19277205040976       -1.34758323411161
C           -3.68130208989727        2.05117839963649       -1.47613435226418
C           -2.73361073822518        2.08916041965737       -0.46566499400836
C           -1.50349259646562        2.84651723933615       -0.33473388396604
C           -0.89486112521708        3.76119565360598       -1.17940649592292
C            0.32261840867330        4.30241589451996       -0.80954617484587
C            0.94894973381527        3.94320745326234        0.38533095738555
C            2.26070378930189        4.50656894854179        0.73450074529338
C            3.23783387063120        3.71094928486033        1.33018488791555
C            4.48070603236622        4.23146956959241        1.63681765154417
C            4.76830956111517        5.55797414578263        1.36263226642623
C            3.80215968970733        6.36146939958299        0.78072281550392
C            2.56061236320315        5.84098027804786        0.46718755459658
C            0.32439725399428        3.02967512221631        1.23841572311808
C           -0.89014141099959        2.49366047966415        0.87839450147951
C            0.28905027147616       -1.74485021465658        1.79459398459686
C            1.03642716999324       -2.58578830134657        1.05021252319289
O            1.58882942713495       -3.65001113321588        1.69174225657594
C            2.35948025892402       -4.52283095950501        0.97901251075206
C            2.83921586416370       -5.62408123578640        1.66918605212984
C            3.64549016758256       -6.54984297092837        1.03384356642940
C            3.96557607084542       -6.35942418014080       -0.29781627603350
C            3.48829380056456       -5.26121988073233       -0.99041019763845
C            2.66766118566395       -4.31399833154759       -0.37458911765344
H            3.84619817620012        2.85580686847595       -3.24047415227710
H            2.15565527317191        2.58345369536320       -2.80897012049757
H            3.15727494136488        3.65134127507054       -1.82381990516684
H            2.84878817549417        1.43857092402532       -0.72501274766984
H            4.54401117452084        1.75823113540719       -1.09364845084924
H            4.31284109567876        0.38042485917473       -3.18265438524671
H            2.64323774325771        0.03732439231432       -2.73498483967836
H            5.14415610261633       -0.70124999315546       -1.15368892235566
H            3.50545958424124       -0.97859121338485       -0.57538628153982
H            4.51848449043885       -2.13256893319685       -3.20788303067670
H            4.73249063288357       -2.96288079803014       -1.66414232650462
H            2.71404609908380       -3.73832034628610       -2.96865986709348
H            2.03299887720241       -2.13551710879360       -2.81079607399301
H            0.64256783828184       -1.15691507887818       -2.01135911428076
H           -1.35541840753255       -0.53613522060017       -0.63414774626253
H           -0.03772771328715        0.60309027357444       -0.47751778964857
H           -1.01710083187799        0.05872664965001        3.13277373717623
H           -2.14042635041787        1.99585608422797        2.53176777025814
H           -4.04533921921819       -0.22274802039678        1.65339329970407
H           -5.98470156963016       -1.17114720400004       -2.15706469127186
H           -7.93622319830585       -2.65253930421352       -1.97224688154824
H           -9.12930586634408       -2.86834138606874        0.17703552711055
H           -8.35863662379392       -1.58622552969190        2.13973225022384
H           -6.41846170933093       -0.08973921448060        1.95176833882125
H           -5.51291171183971        1.16638981443999       -2.11979030828450
H           -3.58439333368319        2.68052539600613       -2.34860429650660
H           -1.35646010206899        4.04196424351636       -2.11471037174833
H            0.81462609162376        4.99878110752474       -1.47273228220007
H            3.02826401127380        2.67118021527313        1.53399925855667
H            5.22996384744738        3.59855668231777        2.09010019002880
H            5.73975501758797        5.96432000916565        1.60272645404440
H            4.01734103086946        7.39938303875178        0.57117710070452
H            1.80723368625215        6.47914422198137        0.02846441674254
H            0.78644970228175        2.75683990330935        2.17586528717588
H            0.19794798836313       -1.94535358378621        2.85148477493416
H            2.56934861132582       -5.72747447781582        2.70823088019830
H            4.01946682163637       -7.40475514374035        1.57440061217229
H            4.59615633970127       -7.06940371641281       -0.81135894924546
H            3.76531344573908       -5.15712492845768       -2.02588437080398
