85
 energy: -121.111713643960 gnorm: 0.000037641747 xtb: 6.7.1 (edcfbbe)
C            3.67928173788983        2.59948224971493        1.92474261919208
C            4.53512443136480        1.53452656619613        1.24876135107966
C            3.70773528298128        0.69280073895298        0.28070699428181
C            4.51909565858751       -0.34372931689171       -0.49852591424435
C            5.24836680152488       -1.38909886277703        0.34918136872466
C            4.31443835146698       -2.23257347911645        1.22908042019492
N            3.30590318546616       -2.91999635768812        0.45094395291359
C            1.99264779400129       -2.45089009407596        0.41966170235502
C            1.41554673470486       -1.74552904802176        1.40620827127779
C            0.03973921584510       -1.16624246247700        1.32554738054866
C           -0.57512317923076       -1.20858965678302       -0.04930336670683
C           -1.63768299279419       -0.46722373405225       -0.39602056707057
C           -2.29665182628396        0.56682534796707        0.46432009115110
C           -3.79361785877146        0.63714503125900        0.30597965381335
C           -4.72046092013001       -0.36321851063035        0.48479453901233
C           -6.07491406791717       -0.08261024811066        0.28834226033929
C           -7.08303066538568       -1.13726342334096        0.46751415564423
C           -6.99132841529625       -2.03410588753622        1.52975702289465
C           -7.94153269384695       -3.02318506887004        1.70121755533784
C           -8.99654964981218       -3.13767231290389        0.81155669651102
C           -9.09602491439566       -2.25437878589258       -0.25035343781338
C           -8.14971454702289       -1.26122178371478       -0.42009989124658
C           -6.46233341372510        1.20754632798259       -0.07636440964569
C           -5.53436903113651        2.21720096193795       -0.25481592175260
C           -4.19148533099602        1.93021322135969       -0.06855238198944
C           -3.00522999730166        2.75329490204403       -0.21618162262243
C           -2.84953263442593        4.07995052704305       -0.58643770267837
C           -1.57067457776932        4.59567453286192       -0.69611260314539
C           -0.44680963038267        3.80353065010970       -0.46320554520300
C            0.90403231763942        4.35503946784639       -0.64590370502964
C            1.25100301480746        5.59614754516338       -0.11903902364118
C            2.52627570766190        6.10141157709226       -0.29349603001913
C            3.47072064460768        5.38004482916859       -1.00479376494606
C            3.13303612995427        4.14854176628922       -1.54121858687621
C            1.86085742401038        3.63768964296875       -1.36018322439309
C           -0.60827973641471        2.47218774647057       -0.07426206652693
C           -1.87903282201600        1.96426575409306        0.06332566715058
C            0.01317148407726       -2.12697419180048       -0.98632972576447
C            1.19849152292433       -2.73289655471293       -0.77316915243541
O            1.64436280585647       -3.60360121939785       -1.71887982065189
C            2.84100461731489       -4.23226162935172       -1.52047865274434
C            3.18719636343343       -5.21458619636344       -2.43456168729758
C            4.39477600827741       -5.87782585320038       -2.32093373474674
C            5.25055513327808       -5.55285559646556       -1.28348502429915
C            4.90862434283089       -4.57465705532645       -0.36795979421350
C            3.69651651817321       -3.89023653596577       -0.46208974601433
H            4.27599637349543        3.18920134594232        2.61683918708424
H            3.24774450990245        3.27080714210653        1.18594143124690
H            2.86610738023538        2.13794828280819        2.48167982483783
H            4.97884742718485        0.89620888203458        2.01555474122588
H            5.34968737628010        2.01670875761801        0.70354451886874
H            3.23908822678211        1.36398281696460       -0.44212312351390
H            2.90198434122686        0.19826104239787        0.82576820391518
H            3.84565233260274       -0.85688615831528       -1.18991597301486
H            5.26649723502836        0.17675003558729       -1.10247189519699
H            5.79681305054513       -2.04816684946157       -0.32727578747192
H            5.97665420313140       -0.90088547434450        0.99816438383031
H            3.82163718273415       -1.58205259847458        1.94576003070985
H            4.89947016716102       -2.95951412235913        1.80047849958292
H            1.92210691961975       -1.56187155459065        2.34148624762356
H            0.08257487554756       -0.13591935486598        1.69225868762182
H           -0.61302915823542       -1.71500521421539        2.02044055688861
H           -2.04224832264790       -0.55420601427352       -1.39459291173172
H           -2.05278992011768        0.39179517016837        1.51718187214760
H           -4.40506696657045       -1.36258875324372        0.74828348243567
H           -6.17973412280698       -1.93970461009076        2.23677426583293
H           -7.86050938540006       -3.70726008315691        2.53377215005824
H           -9.73766879349523       -3.91197076323722        0.94494188366626
H           -9.91432917365353       -2.34173065969125       -0.95058586784707
H           -8.22359447850698       -0.58612154807771       -1.26044429661138
H           -7.51351312651740        1.42261437838455       -0.20338070627028
H           -5.85354560736402        3.21021842332285       -0.53519236322520
H           -3.70903072194499        4.69941556353517       -0.79609713350798
H           -1.43246006082192        5.62292985961991       -1.00176685733063
H            0.51992533083123        6.15615894418821        0.44615457359120
H            2.78579115886655        7.06184046627791        0.12787086257848
H            4.46596202436321        5.77653928662518       -1.14145288554124
H            3.86446016674969        3.58474013668697       -2.10236487023293
H            1.59141776631508        2.68425879849163       -1.79240130049691
H            0.25947899981250        1.85808092724492        0.11962028027670
H           -0.50404105127739       -2.31560997055955       -1.91445941260364
H            2.49501088877451       -5.43338008701286       -3.23215472000355
H            4.66268266608017       -6.63891293256625       -3.03655229101354
H            6.19619007926447       -6.06323199425637       -1.18022337191514
H            5.59565588317171       -4.35354103822848        0.43205948487950
