44
 energy: -64.862022613426 gnorm: 0.000039731947 xtb: 6.7.1 (edcfbbe)
C           -5.67647065574298       -0.00012800554931        0.00009061264284
C           -4.98186294974395       -0.00015206441508       -1.19831982976311
C           -3.59798829584472       -0.00003796724069       -1.19959273197368
C           -2.89397718827103        0.00009936886607        0.00000217588327
C           -1.41135668511282        0.00011306185115       -0.00003595412584
C           -0.71504741034209       -1.21528470510686       -0.00004265994847
C           -1.39238050908697       -2.46353572454017       -0.00002351045287
C           -0.70524243580333       -3.63823099291470       -0.00002428475027
C            0.70511044680983       -3.63825673361158       -0.00005063906085
C            1.39229165223726       -2.46358671004376       -0.00006665241434
C            0.71500355019676       -1.21531091159397       -0.00005578647455
C            1.41135646538418        0.00006207312975       -0.00005325789381
C            2.89397843880801        0.00000439088273       -0.00002130918006
C            3.59791398790605       -0.00015941889354        1.19961866622504
C            4.98178816858578       -0.00029098065751        1.19843474092191
C            5.67647123412498       -0.00025818592877        0.00006809905139
C            4.98186415808171       -0.00007863209033       -1.19834246418022
C            3.59798934192450        0.00005368840310       -1.19961622793529
C            0.71504796729412        1.21545805367403       -0.00005246689698
C            1.39238157867363        2.46370926903117       -0.00004499914224
C            0.70524149874112        3.63840364033528       -0.00003562501039
C           -0.70511234869585        3.63842907381879       -0.00003737974794
C           -1.39229411342481        2.46375898024574       -0.00004427177716
C           -0.71500549961420        1.21548368508840       -0.00004646541741
C           -3.59791311777855        0.00014592616370        1.19964167646794
C           -4.98178741296220        0.00003055776656        1.19845731981969
H           -6.75691664460791       -0.00023565216446        0.00012486625686
H           -5.51969439472256       -0.00027048009208       -2.13566684510304
H           -3.05332846808162       -0.00006888761218       -2.13339435412665
H           -2.47282700690580       -2.46081114276769       -0.00000703767133
H           -1.23409272492446       -4.58051763552298       -0.00000602982730
H            1.23392605312814       -4.58056285667172       -0.00005792008833
H            2.47273827344585       -2.46090057520432       -0.00008826779812
H            3.05319215911391       -0.00019164079785        2.13338402576537
H            5.51956008757648       -0.00042480497978        2.13581579580138
H            6.75691720422203       -0.00037553345742        0.00010264427335
H            5.51969680459097       -0.00005285246664       -2.13568876043842
H            3.05332891478746        0.00018118585164       -2.13341743243755
H            2.47282864189732        2.46098065752032       -0.00004669099504
H            1.23408873909515        4.58069229784673       -0.00002747370476
H           -1.23392503333147        4.58073709475212       -0.00003246597619
H           -2.47274141422957        2.46106835125325       -0.00004661505640
H           -3.05319306530851        0.00025607284308        2.13340814772945
H           -5.51955899209683        0.00005366500672        2.13583863853711
