44
 energy: -64.792268120243 gnorm: 0.000042535073 xtb: 6.7.1 (edcfbbe)
C           -5.68222669290302       -0.00320697326004        0.00078115478709
C           -4.98519642119097        0.64252261078055       -1.00879132846822
C           -3.60377923187414        0.65051718573552       -1.00726689577669
C           -2.88624531350345       -0.00174448990430       -0.00015381611578
C           -1.42353127159255       -0.00099753582911       -0.00053305147406
C           -0.71303598475507       -1.23968523571181       -0.02768207054688
C           -1.37596699952562       -2.46601749729653       -0.12746273571342
C           -0.68270887190421       -3.67612619912346       -0.08248487414082
C            0.68627953866177       -3.67577408263386        0.06691155087735
C            1.37840856549360       -2.46519649666970        0.11658525196807
C            0.71432059960894       -1.23911048813249        0.02157894868002
C            1.42360756143270        0.00035651120879       -0.00059649519905
C            2.88632247327620        0.00111042822878       -0.00024780120905
C            3.60250751692232        0.65008213226781        1.00995254358623
C            4.98392733323416        0.64353970863130        1.01235465642951
C            5.68227866315090        0.00259390988284        0.00064866440281
C            4.98524511648901       -0.63908283783473       -1.01150406947351
C            3.60382639997548       -0.64709217744032       -1.00999690016422
C            0.71312177551068        1.23913905630956       -0.02294455149482
C            1.37605815108605        2.46583552631599       -0.11808773465778
C            0.68279762394699        3.67576946938595       -0.06850318487851
C           -0.68618204919486        3.67484897713986        0.08096991664426
C           -1.37830405113932        2.46409606807670        0.12610679603820
C           -0.71423188575488        1.23837446822380        0.02638639765920
C           -3.60243846017846       -0.65476525323155        1.00743005958771
C           -4.98385726473228       -0.64821709532881        1.00988639722667
H           -6.76235517788460       -0.00375888958378        0.00113539517144
H           -5.52261358213633        1.14083600596237       -1.80311563822281
H           -3.06351309193606        1.13963137683269       -1.80544845418195
H           -2.44873375490047       -2.48103501426748       -0.24522453875117
H           -1.22893675686464       -4.60520359647457       -0.15365987841284
H            1.23338127165943       -4.60461028832058        0.13444637569510
H            2.45118511713941       -2.47966904581932        0.23431051877254
H            3.06116340659718        1.13541939065669        1.80971398680867
H            5.52031611698433        1.13923919887584        1.80900586968223
H            6.76240657455882        0.00315753009991        0.00098571543078
H            5.52266819292999       -1.13420845396116       -1.80781495179124
H            3.06351793323373       -1.13298939346891       -1.81011861693095
H            2.44882030418337        2.48129934261952       -0.23583067560162
H            1.22902744324763        4.60510994849207       -0.13615106895808
H           -1.23327403525706        4.60342222882469        0.15209358685597
H           -2.45107199303475        2.47812186866548        0.24396890410390
H           -3.06112099617957       -1.14332659467818        1.80523788678610
H           -5.52022431717550       -1.14709261709945        1.80456755819881
