44
 energy: -64.792270974133 gnorm: 0.000033788598 xtb: 6.7.1 (edcfbbe)
C           -5.68263808927533        0.00188475665185       -0.00022752121333
C           -4.98486101431832        0.65801208730605       -1.00260098033735
C           -3.60351019594709        0.66473184217934       -1.00096733156223
C           -2.88618023319723        0.00127256220141       -0.00076694708463
C           -1.42388438388237        0.00065261664099       -0.00133863574276
C           -0.71416710524033       -1.23866326296957       -0.02873170096417
C           -1.37752934477544       -2.46449482985077       -0.13206954662222
C           -0.68572648956919       -3.67514880418336       -0.08246964849282
C            0.68225949281464       -3.67588389259528        0.07623541612045
C            1.37521410718107       -2.46594624578801        0.12717590247669
C            0.71303274266701       -1.23937691792298        0.02495527918812
C            1.42390552574803       -0.00071858213967       -0.00123245699881
C            2.88620470529657       -0.00132955471434       -0.00074328634232
C            3.60335954649488        0.66091928136201        1.00039442697316
C            4.98470637626009        0.65339716788456        1.00277854538975
C            5.68264680585421       -0.00231992054850        0.00024722207883
C            4.98494599843325       -0.65755987442805       -1.00275824724933
C            3.60358897388015       -0.66408990923487       -1.00137112804866
C            0.71419673431816        1.23860838221476       -0.02788713850298
C            1.37758108532675        2.46449116187476       -0.13047138097817
C            0.68578843360120        3.67512017211126       -0.08012298620931
C           -0.68219577273514        3.67576406879223        0.07860931128824
C           -1.37516824442049        2.46580295129148        0.12876071308243
C           -0.71300403979802        1.23929198882627        0.02572129593782
C           -3.60341136518995       -0.66183951367087        0.99975565235545
C           -4.98476391861334       -0.65451339166041        1.00190261857641
H           -6.76276103929080        0.00205973959060       -0.00007382383446
H           -5.52172978471168        1.16543438184419       -1.79151759695896
H           -3.06305196368630        1.16139688124441       -1.79432131543972
H           -2.44954856460501       -2.47871626285243       -0.25647178312540
H           -1.23231455079086       -4.60378514240875       -0.15653379354900
H            1.22796469289000       -4.60512306649777        0.14924515727604
H            2.44720340882531       -2.48131889881655        0.25169017312703
H            3.06273375657664        1.15734273001118        1.79378774494793
H            5.52144755641083        1.15991658595589        1.79236302027833
H            6.76276934292724       -0.00270777743894        0.00062659339113
H            5.52188626570690       -1.16445392713886       -1.79196583360425
H            3.06318095798932       -1.16009889585327       -1.79517104741111
H            2.44960221643638        2.47876392567998       -0.25485893561091
H            1.23238097890062        4.60380113417549       -0.15360082268339
H           -1.22788527987127        4.60496326360240        0.15224913148849
H           -2.44715459946113        2.48110736418525        0.25331108212524
H           -3.06286446261462       -1.15883244553228        1.79284372622486
H           -5.52156798742027       -1.16175756346117        1.79097997884369
