  44
        -64.83646324
 C         -5.6745015065       -0.0045654098       -0.0095189398
 C         -4.9769552300        0.4184661672       -1.1287146055
 C         -3.5937787440        0.4228831546       -1.1247417011
 C         -2.8908987101       -0.0010115823       -0.0010906798
 C         -1.4125107623        0.0000767991        0.0021241112
 C         -0.7138296392       -1.2153183405       -0.0047478327
 C         -1.3878035188       -2.4645655318       -0.0415359881
 C         -0.6999233320       -3.6384789255       -0.0246885204
 C          0.7082411286       -3.6368044967        0.0335034053
 C          1.3931228610       -2.4611392950        0.0470369963
 C          0.7157427317       -1.2137993486        0.0092807250
 C          1.4120535397        0.0027450672        0.0014140132
 C          2.8906351672        0.0025450394       -0.0020444905
 C          3.5996204600        0.4103627545        1.1234698160
 C          4.9828265662        0.4044646799        1.1199552972
 C          5.6739977895       -0.0037295111       -0.0086303893
 C          4.9758107891       -0.4079803842       -1.1343093815
 C          3.5926222290       -0.4075655821       -1.1312513975
 C          0.7135652060        1.2180013591       -0.0034253652
 C          1.3883595392        2.4668716523       -0.0378899892
 C          0.7010830427        3.6410822254       -0.0190638031
 C         -0.7070537789        3.6396954318        0.0398824435
 C         -1.3925958313        2.4643391380        0.0520824227
 C         -0.7160319673        1.2166430583        0.0113031443
 C         -3.5993736313       -0.4263659643        1.1184295856
 C         -4.9825746053       -0.4255799744        1.1139553986
 H         -6.7544346452       -0.0058449945       -0.0127168856
 H         -5.5123243723        0.7470542093       -2.0076224195
 H         -3.0469103218        0.7498759958       -1.9977899373
 H         -2.4665940292       -2.4663050800       -0.0857716827
 H         -1.2272342617       -4.5807718333       -0.0528002654
 H          1.2377992733       -4.5777760170        0.0638745357
 H          2.4720001158       -2.4596479044        0.0902106853
 H          3.0576574449        0.7258875926        2.0037161236
 H          5.5232346052        0.7189915023        2.0010614856
 H          6.7539141412       -0.0071305104       -0.0107678315
 H          5.5106529039       -0.7259309141       -2.0174681646
 H          3.0451238278       -0.7208737466       -2.0088202164
 H          2.4672327332        2.4676532993       -0.0814351820
 H          1.2286536449        4.5833145093       -0.0455991491
 H         -1.2362336119        4.5808213045        0.0720714143
 H         -2.4714276721        2.4636121565        0.0964357157
 H         -3.0569812001       -0.7523599745        1.9945426057
 H         -5.5223386879       -0.7557290411        1.9895336592
