  71
       -115.19375537
 N         -0.0351886469       -1.2197285340        0.4925383416
 C         -0.0183287384       -0.0776508942        0.3687944449
 C         -0.0049122097        1.3286903213        0.3139774738
 C         -1.2047013081        2.0724189192        0.3490131860
 C         -2.5206890662        1.4562074463        0.2021248452
 C         -3.6058835487        2.0041839685        0.8881579654
 C         -4.8563955691        1.4349061180        0.7939708941
 C         -5.0571230313        0.3140516778       -0.0125869187
 N         -6.3164616735       -0.2776605397       -0.1015790872
 C         -7.5150379149        0.3825518803       -0.3074731387
 C         -7.7548886028        1.7283788570       -0.5432587446
 C         -9.0625427558        2.1235575438       -0.7541629344
 C        -10.1107432046        1.2066995271       -0.7427490827
 C         -9.8744372235       -0.1382170044       -0.5383683282
 C         -8.5687770823       -0.5588778908       -0.3246500476
 C         -7.9709503870       -1.8478947140       -0.1105243036
 C         -8.4879825599       -3.1320999958       -0.0050292703
 C         -7.6181469386       -4.1771817557        0.2348253445
 C         -6.2524790424       -3.9508528437        0.3871477767
 C         -5.7148231498       -2.6814238962        0.2868745656
 C         -6.5805780345       -1.6316762609        0.0170395605
 C         -3.9839147673       -0.2097818631       -0.7330952131
 C         -2.7299882437        0.3513971151       -0.6228946635
 N         -1.1754157809        3.3893631387        0.5412301004
 C          0.0027707004        3.9634876302        0.6666750428
 N          1.1769868645        3.3800617473        0.5533261732
 C          1.2005922150        2.0620226229        0.3628916229
 C          2.5159104602        1.4419312394        0.2302201975
 C          2.7247748986        0.3103893184       -0.5580815534
 C          3.9808224176       -0.2469780847       -0.6608600119
 C          5.0586951413        0.3087235607        0.0281586828
 N          6.3217323879       -0.2744946061       -0.0622427008
 C          7.5093914112        0.3868898006       -0.3218116800
 C          7.7353288168        1.7285077545       -0.5925930440
 C          9.0335520557        2.1246295323       -0.8541452940
 C         10.0859421279        1.2126715438       -0.8591253169
 C          9.8626744153       -0.1286474029       -0.6199183927
 C          8.5667366852       -0.5500735618       -0.3547803446
 C          7.9831376447       -1.8371932917       -0.0948663424
 C          8.5097173376       -3.1171670144        0.0162770447
 C          7.6537354433       -4.1609020289        0.3060378901
 C          6.2932640048       -3.9369811054        0.5032186913
 C          5.7463288301       -2.6720611329        0.3972756807
 C          6.5969215004       -1.6245094071        0.0752740074
 C          4.8580708014        1.4535694642        0.8002757074
 C          3.6045272868        2.0170153912        0.8889354961
 H         -3.4408777835        2.8678811913        1.5132257658
 H         -5.6818314361        1.8373417648        1.3611139371
 H         -6.9487623891        2.4455098169       -0.5767698259
 H         -9.2750398065        3.1667484991       -0.9356317491
 H        -11.1192297761        1.5557419272       -0.9070659671
 H        -10.6838419375       -0.8523645498       -0.5487264198
 H         -9.5491788557       -3.3038121368       -0.1033129603
 H         -7.9990741822       -5.1840851044        0.3181691522
 H         -5.5978851985       -4.7845880910        0.5931877469
 H         -4.6574914144       -2.5173622296        0.4288586792
 H         -4.1458334086       -1.0467872522       -1.3947998074
 H         -1.9187013960       -0.0512636105       -1.2101158405
 H          0.0059139979        5.0282724965        0.8631609616
 H          1.9120119502       -0.1165206917       -1.1249802579
 H          4.1411448245       -1.1050462139       -1.2953084097
 H          6.9256311835        2.4419062159       -0.6148129083
 H          9.2345359604        3.1643607581       -1.0656666746
 H         11.0864516641        1.5620964824       -1.0657464189
 H         10.6741934093       -0.8399605480       -0.6433265714
 H          9.5674482643       -3.2862914190       -0.1174932210
 H          8.0413307804       -5.1650159280        0.3927795922
 H          5.6507286360       -4.7693431486        0.7488451676
 H          4.6940107987       -2.5089560954        0.5739340019
 H          5.6861866239        1.8799224938        1.3454554030
 H          3.4397082027        2.8996150935        1.4871121121
