71
 energy: -115.118061036254 gnorm: 0.000078473183 xtb: 6.7.1 (edcfbbe)
N           -0.01892620936635       -1.42030508565164        0.07910964943977
C           -0.01056553359876       -0.27032940685847        0.06952567658322
C           -0.00359786066680        1.13311682124267        0.17577304758580
C           -1.21192403941735        1.84146432730941        0.33697928571654
C           -2.52979238134997        1.28632700341092        0.18027448869391
C           -3.61145204420027        1.92152817783713        0.82012268434707
C           -4.88588880269573        1.41988426968841        0.72848306185197
C           -5.13676515279489        0.27257681477208       -0.02845968432472
N           -6.42822005984179       -0.26255039660994       -0.10468683059816
C           -7.58192674697829        0.43650916519869       -0.38833607070553
C           -7.74575175878928        1.77579371958803       -0.71760761990556
C           -9.02696752128423        2.22277146455074       -0.98030300354409
C          -10.12167190039069        1.36316438533604       -0.92895540424654
C           -9.96161513776500        0.02266644008204       -0.62813798260168
C           -8.68576705544180       -0.44934984005815       -0.36022544512837
C           -8.15691819722043       -1.74769695596837       -0.03964189170251
C           -8.73297034051772       -2.99601004443610        0.14131541948014
C           -7.91460667642979       -4.05999111968514        0.47489659781781
C           -6.54300454800145       -3.88551489712873        0.64322339686066
C           -5.94578784189875       -2.65136126508249        0.46875843302578
C           -6.75896841777777       -1.58470197604988        0.10824803490201
C           -4.08268139034030       -0.33655889231957       -0.71232723790864
C           -2.80512689833571        0.16116528039442       -0.61396226480641
N           -1.15262580162790        3.15550349707316        0.72315892733792
C            0.00175916911436        3.73580466957833        0.90963185213286
N            1.15141180835443        3.15081129018898        0.72881449237807
C            1.21142888047134        1.83601974759119        0.34044552479783
C            2.52646809082225        1.28114271924224        0.18417805689488
C            2.80054503612209        0.13807267729715       -0.58653848334134
C            4.07882352636441       -0.35651161335912       -0.68512008190768
C            5.13731013406416        0.27218781525061       -0.02550915477499
N            6.43025121768409       -0.25934504847478       -0.10188925133810
C            7.57811050888470        0.43801059700893       -0.41151864499514
C            7.73316213593959        1.77075623748017       -0.77058077717693
C            9.00999200277903        2.21738420324631       -1.05437239261707
C           10.10882368268424        1.36356546048397       -0.99497056152852
C            9.95731908426571        0.02894728740598       -0.66458136215595
C            8.68610008215706       -0.44253913183462       -0.37503543977190
C            8.16571906235253       -1.73595302898848       -0.02214856017010
C            8.74845514115358       -2.97795048856105        0.17907034877990
C            7.93757843721585       -4.03790486434263        0.54280352452115
C            6.56701472608867       -3.86514897642104        0.72111433539657
C            5.96320829912998       -2.63717332826602        0.52686886851526
C            6.76850836383525       -1.57514780922407        0.13596249412957
C            4.88828900787581        1.43577482028751        0.70759359383588
C            3.61331779766829        1.93433025722137        0.79964200438150
H           -3.41086836676690        2.80047563697169        1.41312923605781
H           -5.69685980602886        1.89021687782715        1.26471914272657
H           -6.90049929607363        2.44387001038450       -0.77925075374774
H           -9.18195698916134        3.26052680183961       -1.23514330728147
H          -11.10747561922234        1.75085681744555       -1.13773305058388
H          -10.80902798971007       -0.64557246982354       -0.60553651920804
H           -9.79805721855151       -3.12981819660600        0.02783318397076
H           -8.34335657876766       -5.04056210025405        0.61760337993049
H           -5.93257856677755       -4.73187706340500        0.92009919034349
H           -4.88523232559441       -2.52106503166930        0.61937491473211
H           -4.28358175853997       -1.18900858574463       -1.34401179983489
H           -2.01739882394761       -0.30743544011415       -1.18141260310044
H            0.00274342951857        4.76698896562814        1.23666595868115
H            2.01012049934152       -0.34734273922002       -1.13554946484075
H            4.27740704865524       -1.22222144129951       -1.29934232022206
H            6.88445560750793        2.43377564154838       -0.83863547535127
H            9.15819403963997        3.25014629453145       -1.33244735454926
H           11.09102087821863        1.75081713789994       -1.22085261132874
H           10.80782425255831       -0.63511100547678       -0.63573285225026
H            9.81288736884861       -3.11014949817669        0.05782667028449
H            8.37163262743868       -5.01366270457835        0.70154422211131
H            5.96276979563251       -4.70786269891613        1.02165750986891
H            4.90371729194587       -2.50764018563458        0.68530026644903
H            5.70218153074677        1.92092476276459        1.22598646439313
H            3.41455066994556        2.82573964761006        1.37439609633856
