71
 energy: -115.193863099530 gnorm: 0.000150919059 xtb: 6.7.1 (edcfbbe)
N           -0.00398640805706       -1.24791744639318        0.47002485205736
C           -0.00179658048544       -0.10552101628096        0.34855128884290
C           -0.00046964484240        1.30090875637529        0.29402743565742
C           -1.20332542157228        2.03915367572054        0.33645584426433
C           -2.52023254161004        1.42194690232158        0.20354514321190
C           -3.60198417273322        1.98680653605826        0.88188771005854
C           -4.85650011442679        1.42568255764041        0.79507729815489
C           -5.06542699688290        0.29532771242989        0.00381601954455
N           -6.33126850462696       -0.28223242584831       -0.08412051512105
C           -7.51946197450191        0.39117676445808       -0.30773579896204
C           -7.74062596299584        1.73776629115959       -0.55705593634169
C           -9.04122145853998        2.14709832069122       -0.78411334048819
C          -10.10067046332199        1.24331221792750       -0.77618961409473
C           -9.88277993999935       -0.10262412394674       -0.55857245200466
C           -8.58463407777873       -0.53719809468281       -0.32771369749514
C           -8.00520004010177       -1.83165347586899       -0.09659581946590
C           -8.53982895101822       -3.10811901815996        0.01501862019421
C           -7.68600776722433       -4.16190882506997        0.27343825740903
C           -6.31920777726428       -3.95143572758829        0.43795220416266
C           -5.76424191795100       -2.68992362684873        0.33177131643766
C           -6.61357200979993       -1.63175099219106        0.04328697362354
C           -3.99462934105225       -0.24935564755724       -0.70478649428425
C           -2.73666372517107        0.30439592524828       -0.60235948509489
N           -1.17738615901702        3.35739473322277        0.52281404989002
C           -0.00135594071446        3.93740400073268        0.63737097376954
N            1.17483650661779        3.35819955597563        0.52159677077129
C            1.20204455259920        2.03971957689160        0.33600144176666
C            2.51979830252693        1.42426287576801        0.20401087874975
C            2.73663809645459        0.29988339914123       -0.59228278081948
C            3.99546100085271       -0.25220469672780       -0.69273849406725
C            5.06714630219852        0.30170820189330        0.00730414591702
N            6.33379798162955       -0.27428636122887       -0.07938277563828
C            7.51958321559118        0.39811201664365       -0.31806492727268
C            7.73760682514705        1.74254886786439       -0.58131913090049
C            9.03606671264451        2.15088706646964       -0.82198436117199
C           10.09635259623846        1.24808116978955       -0.81400816287776
C            9.88140655678671       -0.09593613088504       -0.58211300212337
C            8.58549427825777       -0.52947952204813       -0.33718038984485
C            8.00912354063057       -1.82218722286903       -0.08920236084665
C            8.54563827876371       -3.09715720167844        0.03067205475569
C            7.69469607317871       -4.14893498388737        0.30603635098666
C            6.32898414780971       -3.93794249253221        0.47912809217057
C            5.77213917903329       -2.67804618684385        0.36458876315008
C            6.61843190317616       -1.62218696741646        0.05907753191767
C            4.85812869716048        1.43928737898270        0.78809565441231
C            3.60241989657913        1.99790221932198        0.87379889330756
H           -3.43095292503254        2.85882793527354        1.49366157828305
H           -5.67941647642806        1.84268999735197        1.35530347908366
H           -6.92596240789591        2.44520816584672       -0.58871385461077
H           -9.23884239366801        3.19127397183144       -0.97638278690515
H          -11.10296197335042        1.60312679472819       -0.95456397415197
H          -10.70041847599083       -0.80726301614423       -0.57219104761700
H           -9.60205322270696       -3.26695890824614       -0.09323620974789
H           -8.08040801662283       -5.16322655055902        0.36116200393571
H           -5.67751856325273       -4.79160085332972        0.65795247111888
H           -4.70640944664081       -2.53812880940052        0.48339278843489
H           -4.16165789616048       -1.09593380356779       -1.35291539863942
H           -1.92797371576911       -0.11456902470113       -1.18153850842307
H           -0.00166480562508        5.00343211806918        0.82706895875606
H            1.92759826876665       -0.12622056901553       -1.16563682517069
H            4.16245000164598       -1.10485312039785       -1.33287699879055
H            6.92207566865816        2.44897880630387       -0.61317616963519
H            9.23124667124664        3.19342140796138       -1.02533221997413
H           11.09689197423650        1.60707356653338       -1.00353524283960
H           10.69955428763478       -0.79999169489524       -0.59541928176966
H            9.60711396190910       -3.25620224683859       -0.08437086011565
H            8.09042356849847       -5.14911954033924        0.40048176987179
H            5.68990628323200       -4.77644330139126        0.71265394553251
H            4.71539765338206       -2.52525985981927        0.52276441453250
H            5.68192538221050        1.86376510969156        1.34138478985492
H            3.43106897435040        2.87525710064654        1.47779594651696
