  82
  -122.734536980000       0.476220395245292      !
 C         -5.6729760102        4.3020343486        0.1125609039
 C         -6.1067560940        3.0168235667        0.3993938024
 C         -5.2007408936        1.9836993944        0.5317539661
 C         -3.8305623632        2.2231506040        0.3710272411
 C         -2.8338053135        1.1896417527        0.5205551407
 N         -1.6339531134        1.4844699917        0.9812290432
 C         -0.9322126601        0.3454505249        1.1040355255
 C          0.4387324414        0.3712934219        1.4019796389
 C          1.3451322775       -0.7119150415        1.2604884594
 C          2.6818014986       -0.5633267408        1.5331679086
 C          3.1964007745        0.6705149611        1.9431170399
 O          4.4941206714        0.9367803262        2.2274379749
 C          5.5228058770        0.0664849997        1.7933487038
 C          6.6944581025        0.9265583696        1.3162239667
 C          6.3003091907        1.8589170161        0.1678323684
 C          6.2917233664        1.1921420002       -1.2151504516
 C          5.2820644239        0.0903855590       -1.3815693752
 C          5.6740747906       -1.2366689486       -1.4844415150
 C          4.7602295232       -2.2730470954       -1.6589164832
 C          3.4078677700       -2.0180879020       -1.7599280199
 C          2.9780964151       -0.7003853267       -1.6741080688
 C          3.9134488595        0.3418009675       -1.4697051839
 N          3.2360655940        1.5349945220       -1.4132425788
 C          1.8957326439        1.3074216921       -1.5939378975
 C          0.8420159274        2.2069667592       -1.6443324129
 C         -0.4205254926        1.7042582591       -1.8887114663
 C         -0.6362057537        0.3384467636       -2.0651131277
 C          0.4059401474       -0.5633227032       -1.9982368711
 C          1.6867162085       -0.0799817315       -1.7643583304
 C          2.3119066123        1.7603559217        2.0830436606
 C          0.9848234233        1.6210172562        1.8162376975
 N         -1.7550618570       -0.7611122051        0.7861379403
 C         -1.4100550511       -2.1081854350        0.8473689403
 C         -1.6244976120       -2.9523503885       -0.2470123221
 C         -1.2943035711       -4.2888822743       -0.1605215154
 C         -0.7544885206       -4.8081394478        1.0077285756
 C         -0.5432098145       -3.9741959529        2.0968576796
 C         -0.8677109443       -2.6353291411        2.0247995179
 C         -2.9591381411       -0.2434126804        0.3370715573
 C         -4.0631794138       -0.9842328794       -0.1504726391
 C         -4.8690449382       -0.4445690147       -1.1847941070
 C         -5.9411891247       -1.1437894893       -1.6811794283
 C         -6.2682071435       -2.3976181747       -1.1714176174
 C         -5.4971036838       -2.9394507748       -0.1466908220
 C         -4.4130049318       -2.2607273029        0.3536098251
 C         -3.4018424226        3.5324456014        0.1172259573
 C         -4.3140119387        4.5563567507       -0.0179955066
 H         -6.3881809958        5.1038401617        0.0032459160
 H         -7.1614707532        2.8204826838        0.5273209681
 H         -5.5472857350        0.9952699388        0.7909446091
 H          0.9997822175       -1.6641981669        0.8980998033
 H          3.3301364386       -1.4185399957        1.4170981271
 H          5.1771894781       -0.5731994118        0.9793232675
 H          5.8371049291       -0.5658841336        2.6343547279
 H          7.5111405183        0.2702861564        1.0125565654
 H          7.0345556561        1.5311293706        2.1589222190
 H          7.0132890173        2.6859714055        0.1318623746
 H          5.3188174559        2.2794590965        0.3927491812
 H          7.2876017779        0.7895069761       -1.4134362586
 H          6.0953972227        1.9660714138       -1.9642737179
 H          6.7272646298       -1.4736451757       -1.4259589811
 H          5.1242835892       -3.2876949421       -1.7250489528
 H          2.6981284889       -2.8180755247       -1.9053725974
 H          3.6541297919        2.4384050835       -1.2767049885
 H          1.0049135826        3.2652856777       -1.5054982512
 H         -1.2602712871        2.3804207041       -1.9465843549
 H         -1.6398815958       -0.0121570217       -2.2601339168
 H          0.2374623816       -1.6216370257       -2.1312193241
 H          2.7230573723        2.7048759803        2.4055174027
 H          0.3057849479        2.4518859200        1.9143436154
 H         -2.0409492320       -2.5485379669       -1.1570086618
 H         -1.4558523492       -4.9331458445       -1.0124689911
 H         -0.5029496619       -5.8558604957        1.0703993067
 H         -0.1313922130       -4.3743089271        3.0117836112
 H         -0.7144415526       -1.9834157545        2.8723652640
 H         -4.6009671065        0.5112142559       -1.6099367564
 H         -6.5308966224       -0.7199588191       -2.4814321401
 H         -7.1121016779       -2.9429331877       -1.5650058700
 H         -5.7571055496       -3.9036525173        0.2662427544
 H         -3.8551076310       -2.6766953549        1.1781700004
 H         -2.3420105625        3.7121859397        0.0237154191
 H         -3.9720090250        5.5597745857       -0.2269566874
  82
  -122.734534960000       0.475203535819305      !
 C         -5.6424349396        4.3116734465        0.1150656706
 C         -4.2835885590        4.5616142082       -0.0243251136
 C         -3.3736310270        3.5352785669        0.1079680160
 C         -3.8049825708        2.2279549330        0.3666452118
 C         -2.8104837308        1.1920350382        0.5155742785
 N         -1.6112572457        1.4841526671        0.9794077340
 C         -0.9121665867        0.3434292838        1.1008012463
 C          0.4575932368        0.3651240680        1.4040094216
 C          1.3643282477       -0.7159668551        1.2484864336
 C          2.6990101299       -0.5730721502        1.5333323697
 C          3.2107112897        0.6518787557        1.9727381702
 O          4.5048640859        0.9097117733        2.2799160742
 C          5.5425931725        0.0664136728        1.8145880084
 C          6.6835288268        0.9563468891        1.3179650821
 C          6.2471306064        1.8776095119        0.1759368770
 C          6.2368406773        1.2096875376       -1.2063838276
 C          5.2358465935        0.0992198102       -1.3674512131
 C          5.6369037485       -1.2259085475       -1.4602122743
 C          4.7309117027       -2.2687999592       -1.6364104991
 C          3.3780389119       -2.0225737145       -1.7517791513
 C          2.9395101968       -0.7072530632       -1.6754588157
 C          3.8663546413        0.3413728038       -1.4655798484
 N          3.1808960860        1.5302935593       -1.4173579310
 C          1.8436857143        1.2938743185       -1.6101582006
 C          0.7846179005        2.1862755495       -1.6722354472
 C         -0.4723179568        1.6748836029       -1.9276233028
 C         -0.6772387456        0.3075763721       -2.1047523020
 C          0.3702623066       -0.5870470254       -2.0264428842
 C          1.6453291306       -0.0950984859       -1.7800227146
 C          2.3260069916        1.7401618524        2.1242738336
 C          1.0013570598        1.6074769048        1.8425441375
 N         -1.7360082251       -0.7610914267        0.7787370355
 C         -1.3895257262       -2.1073380623        0.8454846051
 C         -1.6025674799       -2.9576740984       -0.2443600058
 C         -1.2600143410       -4.2908462706       -0.1542689313
 C         -0.7106723165       -4.8011148888        1.0135216113
 C         -0.5046358749       -3.9619432212        2.0995378676
 C         -0.8402488376       -2.6260941400        2.0235239206
 C         -2.9383151896       -0.2403800453        0.3293629465
 C         -4.0441730881       -0.9763020086       -0.1613990454
 C         -4.8480339173       -0.4298047958       -1.1936643810
 C         -5.9237693727       -1.1225307578       -1.6914081266
 C         -6.2562807426       -2.3761845843       -1.1848769282
 C         -5.4867075714       -2.9248810215       -0.1626313121
 C         -4.3990928317       -2.2527547414        0.3388958183
 C         -5.1748695441        1.9924310778        0.5343934094
 C         -6.0785025495        3.0282473086        0.4063065254
 H         -6.3557369967        5.1155900668        0.0090542036
 H         -3.9397866478        5.5635126857       -0.2375099545
 H         -2.3138319587        3.7115354690        0.0075394186
 H          1.0208445112       -1.6604366821        0.8645654461
 H          3.3477747958       -1.4262591012        1.4052821548
 H          5.1938104274       -0.5759768603        1.0043037569
 H          5.8895279324       -0.5628242144        2.6447256256
 H          7.5121886648        0.3217286741        1.0011457864
 H          7.0213097298        1.5695850767        2.1553370844
 H          6.9371673019        2.7235026041        0.1296200994
 H          5.2576346559        2.2718522239        0.4138459080
 H          7.2353424930        0.8162734892       -1.4100531253
 H          6.0290167217        1.9811252365       -1.9550296920
 H          6.6911805077       -1.4559329384       -1.3935209590
 H          5.1016024056       -3.2816066484       -1.6941484589
 H          2.6748731405       -2.8276365754       -1.9012164211
 H          3.5921712048        2.4368199681       -1.2806950447
 H          0.9391809026        3.2458496486       -1.5338804497
 H         -1.3158085023        2.3455403468       -1.9950225667
 H         -1.6765176314       -0.0500538640       -2.3093768751
 H          0.2105041957       -1.6465731644       -2.1601812013
 H          2.7351890248        2.6781183156        2.4676374247
 H          0.3223437853        2.4373360209        1.9494440405
 H         -2.0263366929       -2.5610005737       -1.1539840929
 H         -1.4184075595       -4.9394614121       -1.0034938104
 H         -0.4481867123       -5.8460236928        1.0782956831
 H         -0.0865408943       -4.3552227496        3.0145456984
 H         -0.6895076808       -1.9698893339        2.8681828385
 H         -4.5762777292        0.5264065435       -1.6152792646
 H         -6.5113389843       -0.6942389197       -2.4908606929
 H         -7.1029030929       -2.9164026601       -1.5795789306
 H         -5.7514670404       -3.8887961036        0.2480489076
 H         -3.8412611417       -2.6743668457        1.1607124742
 H         -5.5226726921        1.0051739707        0.7963882327
 H         -7.1329787393        2.8353912311        0.5410512686
  82
  -122.732055480000       3.446589426848176E-002 !
 C         -5.4489268109        4.1909937769       -0.5568723143
 C         -5.5767681848        2.9492194965       -1.1601217639
 C         -4.7314125515        1.9130327315       -0.8175630256
 C         -3.7378082015        2.1051430588        0.1498942125
 C         -2.7982851219        1.0709206735        0.5138785407
 N         -1.5646876861        1.3891804001        0.8504896978
 C         -0.8482337433        0.2600776008        0.9866516990
 C          0.4986585183        0.3186245590        1.3725207051
 C          1.3389863561       -0.7799435905        1.6958482512
 C          2.6745214323       -0.6001789870        1.9487126146
 C          3.2385603343        0.6798893779        1.9429164368
 O          4.5512019560        0.9497950787        2.1449974039
 C          5.5124311735       -0.0444984348        1.8415864719
 C          6.7645548523        0.6660210512        1.3260165073
 C          6.4644205060        1.5869372872        0.1411187088
 C          6.3229931633        0.8678339864       -1.2068992072
 C          5.1375896239       -0.0490474989       -1.3425225356
 C          5.3028745801       -1.4229420513       -1.4411183288
 C          4.2338472349       -2.2894172580       -1.6526499830
 C          2.9490011762       -1.8093721566       -1.8001223413
 C          2.7394777479       -0.4400528938       -1.6986086612
 C          3.8310669009        0.4268945079       -1.4496265690
 N          3.3624044303        1.7157433620       -1.3921086960
 C          2.0068924289        1.7189516004       -1.5977828747
 C          1.1179176068        2.7832803811       -1.6226358850
 C         -0.2102732395        2.5081881374       -1.8808547068
 C         -0.6438696135        1.2077579939       -2.1281438424
 C          0.2352345981        0.1444832174       -2.0978256297
 C          1.5730998303        0.3913070565       -1.8133306014
 C          2.3957918924        1.7920348338        1.7497392566
 C          1.0754477763        1.6204491743        1.4701079437
 N         -1.6639262554       -0.8604032699        0.6925999893
 C         -1.3592477688       -2.2169950748        0.8209390093
 C         -0.2899214285       -2.7753723938        0.1151940571
 C         -0.0271709260       -4.1269869368        0.2126991174
 C         -0.8234176594       -4.9429728186        1.0027650512
 C         -1.8847789431       -4.3919155286        1.7060985728
 C         -2.1566069824       -3.0421729731        1.6195812882
 C         -2.9362470244       -0.3686885920        0.4374042937
 C         -4.0855439834       -1.1379363105        0.1394158389
 C         -5.3632741927       -0.6828585711        0.5547846200
 C         -6.4933905744       -1.4154832419        0.2900477964
 C         -6.4124169352       -2.6202462380       -0.4034478577
 C         -5.1689600329       -3.0782092096       -0.8314295201
 C         -4.0258639380       -2.3663008487       -0.5640856902
 C         -3.5961834638        3.3729227632        0.7273348851
 C         -4.4478932896        4.4000196643        0.3825659695
 H         -6.1185332921        4.9949216888       -0.8246712556
 H         -6.3391697715        2.7903508948       -1.9090766240
 H         -4.8184514177        0.9605537348       -1.3175636451
 H          0.9284473211       -1.7712845676        1.7762280914
 H          3.2861120219       -1.4587624573        2.1826285870
 H          5.1236680723       -0.7275458688        1.0803265067
 H          5.7520815374       -0.6191135907        2.7469241891
 H          7.5071459792       -0.0841648644        1.0508602074
 H          7.1708834525        1.2690943693        2.1400930203
 H          7.2829341808        2.3047188452        0.0479066600
 H          5.5572387914        2.1471708162        0.3708642639
 H          7.2328671311        0.2912022503       -1.3889915945
 H          6.2577220320        1.6309541032       -1.9896334619
 H          6.2998466901       -1.8340198760       -1.3622130072
 H          4.4243228017       -3.3502576477       -1.7222263573
 H          2.1288203739       -2.4808111848       -2.0031630628
 H          3.9206624803        2.5323260572       -1.2161668662
 H          1.4553599926        3.7937824517       -1.4453687924
 H         -0.9298834016        3.3127876961       -1.8958898809
 H         -1.6882716451        1.0350009434       -2.3438041999
 H         -0.1102176476       -0.8571843435       -2.3075325309
 H          2.8323973382        2.7773227231        1.8097940182
 H          0.4302432517        2.4623150379        1.2837743796
 H          0.3223941338       -2.1366049863       -0.5009651434
 H          0.8007497096       -4.5497103931       -0.3377942035
 H         -0.6185552104       -6.0005647373        1.0697828863
 H         -2.5025332011       -5.0200680349        2.3307009332
 H         -2.9776492583       -2.6127200052        2.1739031152
 H         -5.4307706428        0.2311122312        1.1254136581
 H         -7.4537945309       -1.0575841505        0.6326269598
 H         -7.3039377068       -3.1928037887       -0.6078085379
 H         -5.1018975966       -4.0033005251       -1.3860595048
 H         -3.0770201298       -2.7171404337       -0.9395602043
 H         -2.8120628275        3.5178158376        1.4541542778
 H         -4.3376848466        5.3701976674        0.8451755137
  82
  -122.731211520000       1.411017466692169E-002 !
 C         -5.1542796448        4.2129003714       -1.1836433469
 C         -4.2302668070        4.4502826479       -0.1709282905
 C         -3.5001313402        3.4125517001        0.3600566181
 C         -3.6888073050        2.0964088973       -0.0978473301
 C         -2.8834965077        1.0436342293        0.4378310294
 N         -1.6806679003        1.3027670571        0.9358329308
 C         -1.0095153956        0.1592504511        1.0255102681
 C          0.3680210465        0.1583199733        1.3690060568
 C          1.2802620573       -0.8822265407        1.1103020030
 C          2.6118508306       -0.7624276462        1.4366106642
 C          3.0998624164        0.4092405128        2.0155213341
 O          4.3864835877        0.6471483053        2.3613121989
 C          5.4284781884       -0.1823976893        1.8791891236
 C          6.6406105085        0.7060691763        1.5965243202
 C          6.3315070883        1.8008530021        0.5722181258
 C          6.3642809176        1.3319240451       -0.8894334068
 C          5.3283450217        0.3044120182       -1.2540046231
 C          5.6855617555       -1.0032533372       -1.5508243626
 C          4.7493213590       -1.9691705295       -1.9115374912
 C          3.4090095945       -1.6567002189       -2.0109066682
 C          3.0139920604       -0.3546788253       -1.7333033731
 C          3.9712028795        0.6120974794       -1.3425943424
 N          3.3250096577        1.8019694475       -1.1149251232
 C          1.9843259045        1.6478102194       -1.3618458749
 C          0.9551235463        2.5738556796       -1.2845368519
 C         -0.3145971743        2.1550978101       -1.6280583777
 C         -0.5599252356        0.8435417200       -2.0321068932
 C          0.4568613110       -0.0865832559       -2.0946831562
 C          1.7436373883        0.3131309883       -1.7573938917
 C          2.2015512868        1.4591452015        2.2735727241
 C          0.8786319347        1.3392084597        1.9582190100
 N         -1.8090412154       -0.9230190597        0.6285318912
 C         -1.3960464970       -2.2555455824        0.5598069309
 C         -1.3969951715       -2.9278386590       -0.6655993464
 C         -0.9572515508       -4.2340361367       -0.7361485753
 C         -0.5168103835       -4.8877329290        0.4065349093
 C         -0.5202068222       -4.2247728840        1.6246539898
 C         -0.9542243237       -2.9165743111        1.7079903649
 C         -3.0785242954       -0.4079311117        0.3476137101
 C         -4.3034637561       -1.0901079197        0.3561615281
 C         -5.5065997434       -0.3617360119        0.6209261651
 C         -6.7311631843       -0.9743315753        0.6155371321
 C         -6.8495014070       -2.3390351258        0.3590369195
 C         -5.6904770229       -3.0837401081        0.1467635413
 C         -4.4539468169       -2.4925242137        0.1510049697
 C         -4.6081732146        1.8738760460       -1.1404679887
 C         -5.3274922260        2.9233996324       -1.6685214200
 H         -5.7265178222        5.0293299572       -1.5982530291
 H         -4.0864964745        5.4556442941        0.1981985795
 H         -2.7766132919        3.5786774370        1.1426398002
 H          0.9577154787       -1.7837250189        0.6196145026
 H          3.2697739391       -1.5916694468        1.2270646366
 H          5.1264173809       -0.6960615861        0.9645885103
 H          5.6773687607       -0.9313463168        2.6429788104
 H          7.4622377727        0.0783064658        1.2490262660
 H          6.9411240248        1.1777283552        2.5338182889
 H          7.0731023626        2.5959961521        0.6804038781
 H          5.3554337746        2.2246122635        0.8137869447
 H          7.3546399889        0.9223059029       -1.1008711898
 H          6.2287494386        2.2098170641       -1.5296310278
 H          6.7289115849       -1.2816565476       -1.4988175292
 H          5.0865337881       -2.9729703216       -2.1240543013
 H          2.6822388864       -2.4008207081       -2.2991133040
 H          3.7640478742        2.6611508812       -0.8348160445
 H          1.1415515071        3.5902159100       -0.9716387065
 H         -1.1369845474        2.8525848621       -1.5798780991
 H         -1.5687329012        0.5601759584       -2.2970117400
 H          0.2677158386       -1.1036424873       -2.4043969259
 H          2.5901299669        2.3596340421        2.7240854635
 H          0.1899531476        2.1474619723        2.1418441025
 H         -1.7432299361       -2.4108288683       -1.5489488038
 H         -0.9535112482       -4.7466530923       -1.6870479864
 H         -0.1731610876       -5.9090820627        0.3460424992
 H         -0.1833871124       -4.7328167132        2.5160744574
 H         -0.9524192976       -2.3912656463        2.6513477490
 H         -5.4385884947        0.6792506767        0.8910867536
 H         -7.6161954703       -0.3917040711        0.8288870913
 H         -7.8177623039       -2.8145128042        0.3459112290
 H         -5.7654691002       -4.1480939805       -0.0269016374
 H         -3.5872057083       -3.1045669103       -0.0252435368
 H         -4.7276301631        0.8791082241       -1.5424454328
 H         -6.0278090169        2.7410866778       -2.4709629567
