83
 energy: -111.661667990902 gnorm: 0.000149130494 xtb: 6.7.1 (edcfbbe)
C           -5.42343065759539        3.65475576605320       -2.26529495559241
C           -5.56893515510944        2.49358453517374       -1.28829823101245
C           -5.38935836346572        1.14900837469722       -1.99066158853819
C           -5.53856671056956       -0.05796542458132       -1.04496481017604
C           -5.33479617166090       -1.35893878224256       -1.84454471075266
C           -5.46625871003913       -2.61940259873504       -0.99166560585962
C           -5.26807829893537       -3.87924328128546       -1.82690904266280
C           -6.87492284614042       -0.04508398701373       -0.34006217003187
C           -8.14082502348240       -0.10288663107762       -0.88304467716155
C           -9.23804531159570       -0.07466094591811       -0.03158734584094
C           -9.06877351812690        0.00943754111316        1.34224582367692
C           -7.80017114024435        0.06710750211286        1.89709322799462
C           -6.70360679961669        0.03973718109695        1.05045824341833
C           -5.28033561963409        0.08579403478722        1.33631422685141
C           -4.59741565471479        0.16933687515862        2.54071108004445
C           -3.21606658233046        0.19669031584654        2.52479050028924
C           -2.51278974348465        0.13954637658843        1.31638804188667
C           -1.10322782659466        0.16323051188043        1.32379235193503
C            0.10583767470521        0.17905405024868        1.33490159925481
C            1.51509891830371        0.19255460353165        1.35139259758804
C            2.19579903076308        0.36879980931222        2.56237324463434
C            3.57594625800581        0.37808765007573        2.60298478006370
C            4.28132682937349        0.20799771549203        1.41964700332066
C            3.60427341832890        0.03301635752054        0.20020864634732
C            2.23048334249004        0.02510609272657        0.15770778864314
C            4.58415023159238       -0.13273918816687       -0.93770825211841
C            4.42750941089873        0.98483600825878       -1.98696332299661
C            4.58023517367843        2.38988448028148       -1.40711743372327
C            4.40477144872833        3.45464425792937       -2.48400404685615
C            4.42256164011552       -1.50151257935343       -1.62712237041909
C            4.54912519188040       -2.68427765550267       -0.66859648619400
C            4.38576412655277       -4.01085515174583       -1.40187214928378
C            5.90645671963569       -0.03155953175312       -0.21520384227989
C            7.17679986083024       -0.11097579621608       -0.73325776064440
C            8.26478709458316        0.00984265651582        0.14240474264083
C            9.57675938573311       -0.07064945274047       -0.36667620770366
N           10.64496135968574       -0.13824574980752       -0.78482477718099
C            8.06672300020585        0.20858000553623        1.51267064005764
C            6.78708276606026        0.28782831897030        2.02770915513404
C            5.70735038595933        0.16806190834470        1.16340243068971
C           -3.20573626713013        0.05569588434656        0.10072102401454
C           -4.57970918209887        0.02981257625376        0.11957797096094
H           -4.43804340427588        3.64502880874124       -2.72714512938014
H           -6.17177947326715        3.58812042784173       -3.05259763583160
H           -5.55124303514074        4.60446388222995       -1.75055986883288
H           -6.55656894971529        2.53200061114788       -0.82246659740948
H           -4.82533860183220        2.59222125971784       -0.49385100537290
H           -4.39885952349299        1.11457750110012       -2.45000993783181
H           -6.12984786964949        1.06093510420985       -2.78879795454238
H           -6.07185860238905       -1.39344492415626       -2.64988999685911
H           -4.34284667431937       -1.33765355707245       -2.30154839569697
H           -4.72522241846678       -2.59550118917812       -0.18906109509577
H           -6.45497591804847       -2.64279892133983       -0.52723501672287
H           -4.28053357489925       -3.88374331808350       -2.28416268917537
H           -6.01277754387544       -3.93446361191141       -2.61856636765503
H           -5.36190603011046       -4.76725547859010       -1.20566185960101
H           -8.28583206072060       -0.16886692330835       -1.95172520757422
H          -10.23582936263557       -0.11899469816220       -0.44438347626933
H           -9.93649188099624        0.03022316038369        1.98626103634879
H           -7.67182102460370        0.13240729896281        2.96770993518276
H           -5.13281363282099        0.21280874684612        3.47788369764853
H           -2.66166830469840        0.26076738154595        3.45036610652388
H            1.62306319868018        0.49762246018008        3.46951284782005
H            4.09349116179114        0.51405082628449        3.54098335746975
H            1.69367414640405       -0.10948286156200       -0.76985431612037
H            3.44130512372417        0.89382843403497       -2.44696719604083
H            5.17476312394461        0.83766092196025       -2.76986848139427
H            5.56907271666645        2.49353997403592       -0.95383127065727
H            3.83767334235580        2.54335951354511       -0.62060563497792
H            3.41728292583839        3.38296772221637       -2.93544124662457
H            4.51560527956429        4.44933115410584       -2.05815236771898
H            5.14998576524046        3.33283563137437       -3.26770089513341
H            3.44275243420327       -1.53535347035168       -2.10802135144801
H            5.18020002027719       -1.59147687114704       -2.40868255532337
H            5.52690720375687       -2.65823689368456       -0.18147104334530
H            3.78840921645835       -2.60532141514001        0.11155703766741
H            3.40963636590349       -4.06619333642536       -1.87952679195432
H            5.15003136065169       -4.12099574959885       -2.16876822663377
H            4.47527630760661       -4.84315143269027       -0.70737605127007
H            7.35429590594475       -0.26344026296661       -1.78787584624402
H            8.92644247901074        0.29782657703868        2.16112806414093
H            6.63561890890224        0.44103966556580        3.08536393051603
H           -2.65174356395219        0.01315397613206       -0.82590569225188
