83
 energy: -111.648878816677 gnorm: 0.000114095970 xtb: 6.7.1 (edcfbbe)
C           -6.52929374219234       -2.06464441308160       -3.23974083322316
C           -6.64538163215500       -1.60840337871506       -1.78843285444823
C           -5.54624665209002       -0.60515903651560       -1.44841374886976
C           -5.47984355135418       -0.11863246658807        0.01540876599498
C           -5.35360046369900       -1.25467615311908        1.05199431982669
C           -4.19217773152090       -2.22853864430613        0.86790813734763
C           -4.26152766368025       -3.35142847122974        1.89864342437713
C           -6.67586967408697        0.73250746606615        0.40118088054821
C           -7.99686663556835        0.36728657432670        0.56436092044641
C           -8.92376799054555        1.32939196686354        0.94469088428952
C           -8.53590418063557        2.63937945099115        1.17921165579965
C           -7.20813212669461        3.01143553652565        1.05147044695915
C           -6.28335927418953        2.05364192740797        0.66639854683637
C           -4.84820070549676        2.15597736638145        0.47900576826904
C           -4.00259347971264        3.24937417269000        0.59534413217974
C           -2.65700323123723        3.08574038102269        0.32996418200373
C           -2.15939746424174        1.83968555486300       -0.06070717282542
C           -0.78353610462472        1.69061169691393       -0.34440057280828
C            0.39383802221051        1.56479693004311       -0.58668164084519
C            1.77114613881774        1.42466234675264       -0.86718645394678
C            2.33158517037939        2.09937410351035       -1.95742112922404
C            3.67689334567004        1.97967871617483       -2.24535992130570
C            4.46711124830859        1.18199945113470       -1.42920655340801
C            3.91138065293175        0.50602205536647       -0.33098173424975
C            2.56880530302025        0.61352481853075       -0.05107936372590
C            4.96167405080195       -0.32277105639641        0.37689029403159
C            4.59802305875059       -1.80663121100791        0.10998862861587
C            5.58389097560774       -2.84891475069824        0.63139346648481
C            5.05124734988783       -4.25934448246607        0.39712789783365
C            5.04189910515738       -0.04353630898098        1.88782632560074
C            4.97768273257015        1.43236549847972        2.29079785526725
C            6.21159949532479        2.24156041717268        1.90832679970498
C            6.20948840975096        0.06140558729459       -0.38396105398450
C            7.51758725829214       -0.29216980581437       -0.14895888300304
C            8.50793389173994        0.17508267568350       -1.02414294316633
C            9.85338425241491       -0.17692325887518       -0.79504064168779
N           10.94880245950600       -0.46761932803058       -0.60525622585292
C            8.18303968977646        0.98647023490936       -2.11543009779308
C            6.87098640429743        1.35776672230883       -2.33638409400850
C            5.88877969987086        0.90204353012588       -1.46790089817315
C           -3.01671167445497        0.73885129035249       -0.18106461939191
C           -4.35373063250878        0.89489412388318        0.10656061928120
H           -6.60264466783718       -1.21382127517138       -3.91449992906111
H           -5.57410020198789       -2.55651467113678       -3.41399692989545
H           -7.32514710272373       -2.76512080735701       -3.48415822869287
H           -6.57517640520029       -2.47986127780766       -1.13608585347558
H           -7.62270922523655       -1.14786884943144       -1.64191995621372
H           -5.67362414704833        0.27844443788068       -2.08148122099949
H           -4.57951737506774       -1.04465725883821       -1.70216292881511
H           -5.26679583302986       -0.79016976800963        2.03905121057923
H           -6.28756702580981       -1.82002750611571        1.04541882498057
H           -4.22055658949330       -2.66355462087362       -0.13202763129325
H           -3.24499080233289       -1.70153159746130        0.98598358246766
H           -5.18834447826802       -3.91262441853427        1.79501693953681
H           -4.21936648883800       -2.94683892958549        2.90813918161262
H           -3.42871589791251       -4.03967340761123        1.76988066152080
H           -8.32139178236102       -0.65082612679657        0.41122380529408
H           -9.96086006929330        1.05021829571029        1.06498426666130
H           -9.27363565929989        3.37147816495643        1.47536404945057
H           -6.89986271947512        4.02687884421327        1.25351296927299
H           -4.38832526866489        4.21659830596563        0.88245209430524
H           -1.97618514770787        3.92081679493529        0.41445900923690
H            1.69471515999703        2.71745517200083       -2.57377952487417
H            4.10291149526915        2.50093601962127       -3.08970877304012
H            2.12206417046851        0.10065069913002        0.78804187923309
H            4.48991469466029       -1.93890193892305       -0.97058842485906
H            3.62046258140517       -1.99256130933920        0.56091357391375
H            5.75126125387019       -2.70684556452151        1.69995215292664
H            6.54038977673989       -2.74347453077113        0.11733711137920
H            4.88290334074352       -4.43376818638137       -0.66379005271025
H            5.76313535884066       -4.99890614563924        0.75714993639025
H            4.10934115193945       -4.40610934487524        0.92188514475640
H            4.20783115191754       -0.56001856034307        2.36854044743139
H            5.96726171609742       -0.47102146317350        2.27690066808677
H            4.09251849908325        1.89659652034060        1.85118908872162
H            4.86261374690040        1.47059148036369        3.37756545211664
H            6.14819113222185        3.24072380914488        2.33516000320644
H            7.11607290488493        1.76702865874959        2.28468521350473
H            6.29933777929454        2.34110427828386        0.83004757804050
H            7.80468288146390       -0.90130010717196        0.69484146220885
H            8.96985056064939        1.32642668959130       -2.77330188440397
H            6.61949455018677        1.99857820859322       -3.16783734416138
H           -2.60907112346927       -0.20466954359950       -0.51109914008911
