83
 energy: -111.582761354006 gnorm: 0.000168544163 xtb: 6.7.1 (edcfbbe)
C           -5.41218394735475        3.65647894336886       -2.26125011472306
C           -5.56420278818295        2.49210561068083       -1.28917693196186
C           -5.38088974348894        1.14976729912434       -1.99508448388604
C           -5.52716081219732       -0.05954680148762       -1.05091670513575
C           -5.32917476790601       -1.36022194996518       -1.85227187457505
C           -5.45888249525004       -2.62004325843584       -0.99807073338284
C           -5.26172187286184       -3.88016592745022       -1.83304814866469
C           -6.85954988760107       -0.04394613179038       -0.34010523022506
C           -8.12604099389996       -0.10619248393728       -0.87381072883899
C           -9.22099784711546       -0.07274659796962       -0.01557490260244
C           -9.04571697418497        0.02139437041116        1.36112356432208
C           -7.78030931134265        0.08425954432965        1.91139992372569
C           -6.67738286675726        0.05188495335578        1.05796526300249
C           -5.27449968529572        0.09934526675549        1.33705184934015
C           -4.57991499552386        0.19812635198633        2.55200758980757
C           -3.21347820094829        0.22451528707169        2.53994170466925
C           -2.48596718889095        0.14635333104465        1.31590195052692
C           -1.11446102221469        0.16304815616341        1.32494683222744
C            0.11844914312344        0.17143603651176        1.33635851904687
C            1.48548312182057        0.17618540885561        1.35072033775548
C            2.19470262189006        0.32142581420282        2.58593862374736
C            3.55486366626513        0.32856088724300        2.62367605265671
C            4.28198165249507        0.18243090151024        1.42075784900192
C            3.58275662372162        0.02795797910011        0.18062772547364
C            2.22815423252797        0.02926014292000        0.13504010903312
C            4.57081834674317       -0.13085145589966       -0.95311750605326
C            4.41409827783181        0.98132214508702       -2.00714716198332
C            4.55806703884797        2.38729180960014       -1.42791021852870
C            4.38939176797168        3.45194128825381       -2.50580255599022
C            4.41827592953071       -1.50431059141860       -1.63691538940672
C            4.55196776747031       -2.67938954547911       -0.67006710322233
C            4.39877520807704       -4.01336641465928       -1.39170156864710
C            5.89025758089147       -0.02618881866653       -0.22463491310404
C            7.15507730713862       -0.08634069157501       -0.73357182202466
C            8.25245885121129        0.03019976374797        0.14963325933436
C            9.55600681286406       -0.02980448479583       -0.35047982088315
N           10.63131668301860       -0.08128527144384       -0.76724967347566
C            8.03868082022440        0.20571053361658        1.53403514486714
C            6.76949461224808        0.26654778247108        2.04549375775757
C            5.67163761504925        0.15258559750010        1.17260380538138
C           -3.20084654343848        0.04873646911039        0.08610712005167
C           -4.56145183825450        0.02959267457179        0.10873344929608
H           -4.42355059777973        3.64883636776826       -2.71605379140458
H           -6.15467811476643        3.59262013549048       -3.05423275033464
H           -5.54382207680898        4.60444548253347       -1.74428860948751
H           -6.55472091829789        2.52998237990800       -0.82938831597354
H           -4.82515266831943        2.58867644637496       -0.49024842749912
H           -4.39007964707936        1.11837046569667       -2.45342470749944
H           -6.12059576246940        1.06164185533231       -2.79364811955114
H           -6.06993289207371       -1.39351796393774       -2.65397511424756
H           -4.33955786378846       -1.34020103172041       -2.31378354215233
H           -4.71617074854147       -2.59603928099986       -0.19704833827697
H           -6.44686407525751       -2.64399122076943       -0.53202462606785
H           -4.27523979774337       -3.88442137231636       -2.29253003829715
H           -6.00792059474433       -3.93653043684036       -2.62315931876274
H           -5.35345650666046       -4.76807195599087       -1.21135767174825
H           -8.27787358621608       -0.17966282142013       -1.94075994357173
H          -10.22032605934594       -0.12081488831641       -0.42301353603331
H           -9.91281814898415        0.04524915314004        2.00551939283056
H           -7.64653412372433        0.15679286721981        2.98039579652045
H           -5.12221320611913        0.25344901471701        3.48430716382061
H           -2.65399864520254        0.30027121621316        3.46091590336788
H            1.61541072566829        0.42936746903353        3.49157191865296
H            4.08161661031537        0.44247602497720        3.55950549712461
H            1.68538533832737       -0.08424599319372       -0.79166001792588
H            3.43137708375094        0.88488456488746       -2.47374530847010
H            5.16769465981706        0.83583052043263       -2.78436028292472
H            5.54302827559540        2.49152214724645       -0.96618103730431
H            3.80880743638795        2.53841322855979       -0.64721776637666
H            3.40635668416417        3.37726870328430       -2.96645296508455
H            4.49402475467536        4.44687696470692       -2.07887008167259
H            5.14224870902593        3.33186267400901       -3.28243814513315
H            3.43950056078244       -1.54738167777439       -2.11954114903653
H            5.17900316776884       -1.59373461292860       -2.41565266255419
H            5.52938508422833       -2.64103594824602       -0.18281562799389
H            3.79057269286724       -2.59903867045926        0.10942873738839
H            3.42378644076518       -4.07951993557824       -1.87034487268600
H            5.16508850640130       -4.12434621646959       -2.15641582144399
H            4.49360177325894       -4.83893199667028       -0.68983700483748
H            7.34229805661507       -0.22041081056359       -1.78945538289045
H            8.89979001909041        0.29072290896373        2.18220503271212
H            6.61145853822128        0.40122096503301        3.10491804941415
H           -2.64268783643378       -0.00541763607724       -0.83672368708079
