83
 energy: -111.582854783230 gnorm: 0.000153211537 xtb: 6.7.1 (edcfbbe)
C           -5.29343620685043        3.81653823907383       -1.99193300128107
C           -5.47765464456225        2.58643255027703       -1.11060942841134
C           -5.33074227968760        1.29702552419290       -1.91644718950376
C           -5.51490722182272        0.02459593246749       -1.06726722786927
C           -5.34648970981285       -1.21655099850954       -1.96480258362122
C           -5.51109192538709       -2.53413882337652       -1.20956868673045
C           -5.34051925984893       -3.73148186730969       -2.13747743323907
C           -6.85116990668880        0.01885290028845       -0.36351484254870
C           -8.11510142131203        0.03888962753917       -0.90647592939671
C           -9.21474460914290        0.02748271565424       -0.05365304757011
C           -9.04644573600854       -0.00413413230062        1.32671470974323
C           -7.78371669622382       -0.02371069849114        1.88631558538443
C           -6.67608687130518       -0.01190460654412        1.03844788727624
C           -5.27435969589864       -0.02514967724553        1.32687312697227
C           -4.58590998521574       -0.05260682753040        2.54894005711663
C           -3.21917505650108       -0.05758793540890        2.54566437897072
C           -2.48555584632021       -0.03515979370825        1.32300025867222
C           -1.11405217844320       -0.03755252129949        1.33943109027475
C            0.11886791976756       -0.03733740530794        1.35474912026500
C            1.48589329392370       -0.03606323868109        1.37157223067452
C            2.19390388250393       -0.06030618226263        2.61568166145130
C            3.55409665698284       -0.05959018784340        2.65508441706975
C            4.28219221210320       -0.03406986733722        1.44420979619521
C            3.58407500985724       -0.00861674042896        0.19418664474013
C            2.22951857630501       -0.00946783906449        0.14789098815322
C            4.57327123198759        0.01751617029050       -0.94934133446073
C            4.41869486135307        1.29474965712954       -1.79754295631017
C            4.55776707341642        2.57940239408700       -0.98274996213049
C            4.38490136683195        3.81512908243010       -1.85833859069387
C            4.42045255673642       -1.21926289396765       -1.85559070773523
C            4.55326192937739       -2.54013713928991       -1.09988114043325
C            4.38804014325466       -3.73395139351925       -2.03314696141759
C            5.89200550918794        0.00168773070116       -0.21246111865996
C            7.15712518490212        0.01272456024612       -0.72406200965649
C            8.25382311332773       -0.00614529484934        0.16729450634164
C            9.55763680879501        0.00389669292664       -0.33574053963112
N           10.63293729789992        0.01263337454765       -0.75537232555141
C            8.03898841716696       -0.03556583226701        1.56230873915963
C            6.76941279311461       -0.04657474530662        2.07636033531408
C            5.67216096449644       -0.02825656266029        1.19554815915548
C           -3.19419593308425       -0.00890164801540        0.08592668108252
C           -4.55500482820931       -0.00376275088928        0.10029935027395
H           -4.30557704963134        3.81575925756227       -2.44846013739432
H           -6.03768607921378        3.83373306092813       -2.78567755650556
H           -5.39814901906166        4.72595073578600       -1.40438467486659
H           -6.46696356374360        2.61599613110318       -0.64769087365347
H           -4.73656014462878        2.60151989690735       -0.30786818434563
H           -4.33985126593096        1.27203521296045       -2.37494201047262
H           -6.06998777875420        1.29103837587118       -2.72023594014273
H           -6.08481422532081       -1.16989722696119       -2.76812864801422
H           -4.35485160024792       -1.18687887302556       -2.42142351782668
H           -4.77178776048494       -2.58961900600965       -0.40696473934769
H           -6.50160523379887       -2.56924612429587       -0.74959155767387
H           -4.35151940097238       -3.72600075505801       -2.59150132438783
H           -6.08280636531744       -3.70816012027579       -2.93289751752160
H           -5.45871718216850       -4.66144555362843       -1.58579381242472
H           -8.26123386183596        0.06312045037042       -1.97646460950884
H          -10.21214938284091        0.04301251817012       -0.46827153061951
H           -9.91702914421199       -0.01296623699029        1.96678979861521
H           -7.65566187895261       -0.04775803801228        2.95820033018542
H           -5.13308566709252       -0.06913808918595        3.47988941381122
H           -2.66428191831410       -0.07779792191756        3.47230680612401
H            1.61366794448883       -0.07951944597651        3.52695695492633
H            4.08027301961078       -0.07836013182021        3.59797204803249
H            1.68731302662561        0.00953937379186       -0.78589620305775
H            3.43762397330632        1.27918468893175       -2.27708734501280
H            5.17546040599344        1.28634950290601       -2.58516436537003
H            5.54209376014893        2.60529127020304       -0.50860906209362
H            3.80798758167525        2.58977301458673       -0.18803745859893
H            3.40203735333076        3.81831889447609       -2.32530535766123
H            4.48543783433495        4.72053449858869       -1.26393996505696
H            5.13811990952417        3.83551726196095       -2.64356822610283
H            3.44192778037167       -1.18015653485785       -2.33892678504711
H            5.18122822395883       -1.17627634288740       -2.63819920237084
H            5.53359642591946       -2.58801799827924       -0.61921701768762
H            3.79674013281990       -2.58718664188008       -0.31294566491851
H            3.40948201509610       -3.71475445777797       -2.50868628427296
H            5.14836762128742       -3.71850683609775       -2.81160261936540
H            4.48292023241672       -4.66589062982645       -1.48035747096034
H            7.34482969508611        0.03518953038230       -1.78808756564692
H            8.89961325916031       -0.04906040394385        2.21652910381805
H            6.61058504666555       -0.06899932463257        3.14394327137543
H           -2.63088592949289        0.00703516113896       -0.83526692189379
