  66
  -109.303219880800       0.244324195613227      !
 O          0.5460593222        5.5248198601        1.3286167969
 S          0.2757321692        4.8352062834        0.0958336101
 O          0.1440652407        5.6025493187       -1.1136901006
 C          1.4149556407        3.4819308552       -0.1481729876
 C          1.7381964831        2.7006238826        0.9653942129
 C          2.1032728822        1.3868443883        0.7990254613
 C          2.1492920795        0.8371863375       -0.4872048954
 N          2.3624778804       -0.5646452555       -0.6284366573
 C          1.2803052851       -1.3404143951       -0.9810574552
 C          0.0896479968       -0.7611578788       -1.4482365807
 C         -0.9836216332       -1.5265557739       -1.8308148216
 C         -0.9394498167       -2.9287429832       -1.7230630753
 C          0.1838275277       -3.5239021484       -1.2170964535
 C          1.3019106215       -2.7640405848       -0.8564340535
 S          2.6005882526       -3.6150805266       -0.0837265601
 C          3.8603737420       -2.4242564886       -0.0348479958
 C          5.1294958591       -2.8380021183        0.3754040997
 C          6.1645111897       -1.9448331421        0.4766532071
 C          5.9393550633       -0.5860691822        0.1711599018
 C          4.6931370814       -0.1543935544       -0.1957628359
 C          3.6056604632       -1.0426037919       -0.3046074241
 C          1.9421391517        1.6522013264       -1.6080924876
 C          1.5579069103        2.9615853988       -1.4331145071
 C         -1.0884397505        3.6980723586        0.2960735989
 C         -1.6284077540        3.1063813176       -0.8402985109
 C         -2.2510551068        1.8807462594       -0.7494806125
 C         -2.3128605604        1.2226436831        0.4834443996
 N         -2.7496768602       -0.1059246251        0.5627772099
 C         -3.9031326838       -0.6408027214        0.0303040090
 C         -4.9605224536       -0.0020523297       -0.6022341223
 C         -6.0203781157       -0.7795293969       -1.0277945529
 C         -6.0386795908       -2.1582400893       -0.8245975903
 C         -4.9988244910       -2.7961250046       -0.1771254102
 C         -3.9210422447       -2.0371543771        0.2588185136
 C         -2.7025558571       -2.3527976765        0.9502209503
 C         -2.1383110461       -3.5366951518        1.4055735402
 C         -0.8910870158       -3.4921517224        1.9965336301
 C         -0.2027310964       -2.2879037591        2.1266352851
 C         -0.7456608168       -1.0954032156        1.6888382634
 C         -2.0078786846       -1.1319471928        1.1123734923
 C         -1.8573534145        1.8675002572        1.6365339097
 C         -1.2433671052        3.0962650957        1.5415905455
 H          1.6661087554        3.1436296099        1.9452539852
 H          2.3264512052        0.7599876376        1.6501791765
 H          0.0154002565        0.3120938547       -1.5143444515
 H         -1.8741040511       -1.0512546607       -2.2090385866
 H         -1.7903669557       -3.5198452782       -2.0190190391
 H          0.2370527235       -4.5942841538       -1.0893339501
 H          5.2752430986       -3.8843579472        0.5973995270
 H          7.1449499653       -2.2750832711        0.7781568470
 H          6.7553084061        0.1161793651        0.2278253168
 H          4.5310090567        0.8870402613       -0.4264014441
 H          2.0583864724        1.2335457216       -2.5968369147
 H          1.3399108465        3.6013009284       -2.2734686836
 H         -1.5147523100        3.6091865262       -1.7879199633
 H         -2.6425060958        1.3983236688       -1.6324007161
 H         -4.9596306668        1.0675602269       -0.7473721145
 H         -6.8550706553       -0.3084073458       -1.5251345002
 H         -6.8852172168       -2.7307834735       -1.1729594415
 H         -5.0215775109       -3.8620244569       -0.0072181387
 H         -2.6633725078       -4.4727520484        1.2902314317
 H         -0.4335127680       -4.4019792013        2.3552560930
 H          0.7784237614       -2.2885954059        2.5799230858
 H         -0.2023680777       -0.1664098753        1.7785524153
 H         -1.9723354435        1.3808714644        2.5935268405
 H         -0.8572903053        3.6030014864        2.4116036223
  66
  -109.303194150300       0.237761514545616      !
 O          0.5277409780        5.4912960769        1.3510121274
 S          0.2694278085        4.8069468582        0.1126675069
 O          0.1484416901        5.5808784204       -1.0939881995
 C          1.4131791541        3.4577637480       -0.1282328857
 C          1.7391602854        2.6765289946        0.9838706311
 C          2.1275228895        1.3696006569        0.8134911213
 C          2.1926686132        0.8284430483       -0.4748292973
 N          2.4415294936       -0.5674797327       -0.6211399390
 C          1.3682019901       -1.3737385235       -0.9263241209
 C          0.1518668111       -0.8288990631       -1.3678234077
 C         -0.9160695229       -1.6250296172       -1.6990665300
 C         -0.8393302640       -3.0230928208       -1.5572919284
 C          0.3119750119       -3.5838378182       -1.0750923487
 C          1.4269564122       -2.7939129828       -0.7751020688
 S          2.7791529248       -3.5976324316       -0.0433040343
 C          4.0151847092       -2.3814066750       -0.0926856330
 C          5.3161211006       -2.7606604546        0.2461038576
 C          6.3312728333       -1.8404240958        0.2854416215
 C          6.0530428977       -0.4876665429       -0.0029428342
 C          4.7768026304       -0.0894702237       -0.2990245585
 C          3.7114013174       -1.0079037274       -0.3537425017
 C          1.9707371172        1.6419868745       -1.5936832620
 C          1.5656906763        2.9444490448       -1.4147930848
 C         -1.0973456101        3.6704789810        0.2949862085
 C         -1.6270293175        3.0839139704       -0.8487356932
 C         -2.2674481233        1.8669065240       -0.7650522221
 C         -2.3612398478        1.2149182544        0.4688774051
 N         -2.8356151962       -0.1008915865        0.5450695902
 C         -4.0015314123       -0.5989748927        0.0041285321
 C         -5.0308226225        0.0728532298       -0.6403393245
 C         -6.1124168101       -0.6699351547       -1.0725567060
 C         -6.1786967689       -2.0465652310       -0.8647245922
 C         -5.1667598953       -2.7168896250       -0.2060525403
 C         -4.0678756750       -1.9931568004        0.2373956844
 C         -2.8670834002       -2.3461125413        0.9414805795
 C         -2.3472381862       -3.5460548589        1.4082483437
 C         -1.1050134607       -3.5400045771        2.0107841854
 C         -0.3772700269       -2.3588808462        2.1414490892
 C         -0.8765081954       -1.1507945971        1.6950765011
 C         -2.1333906485       -1.1483233149        1.1058283328
 C         -1.9085785759        1.8524698015        1.6269582623
 C         -1.2738675133        3.0712960359        1.5384689197
 H          1.6541106705        3.1137961529        1.9653076554
 H          2.3559726736        0.7421701559        1.6627908606
 H          0.0556971427        0.2410207783       -1.4587533017
 H         -1.8260851954       -1.1774963484       -2.0645257985
 H         -1.6863058142       -3.6385135350       -1.8118146077
 H          0.3914985859       -4.6497662100       -0.9254230106
 H          5.5016724690       -3.8017639874        0.4629537349
 H          7.3361719713       -2.1445086077        0.5284162853
 H          6.8514584104        0.2365395166        0.0113654566
 H          4.5731263463        0.9476965953       -0.5156036652
 H          2.0925104396        1.2270334622       -2.5833167425
 H          1.3395175543        3.5843897935       -2.2527761337
 H         -1.4918493951        3.5833284880       -1.7952906904
 H         -2.6503516690        1.3865800182       -1.6530132651
 H         -4.9923248181        1.1413608399       -0.7885115475
 H         -6.9264640255       -0.1728514687       -1.5786148338
 H         -7.0405389896       -2.5916911409       -1.2193580934
 H         -5.2271045386       -3.7809081470       -0.0335250927
 H         -2.9024835779       -4.4646208858        1.2928507266
 H         -0.6813259835       -4.4628779713        2.3774699968
 H          0.5987520361       -2.3905554431        2.6042524568
 H         -0.3036684708       -0.2397928749        1.7867526307
 H         -2.0428797443        1.3682006824        2.5826282014
 H         -0.8913669824        3.5735237954        2.4126563518
  66
  -109.303019636600       0.197669932963112      !
 O          0.4215283695        5.0423373519        1.4227145564
 S          0.1815462851        4.3777984176        0.1687985526
 O          0.0474847315        5.1729663085       -1.0236017756
 C          1.3949328254        3.0990083690       -0.0868714829
 C          1.8973003974        2.4219245149        1.0233744818
 C          2.5525895974        1.2239949754        0.8537373838
 C          2.7015163221        0.6963691927       -0.4307622619
 N          3.2849694660       -0.5983912699       -0.5871924091
 C          2.4238872783       -1.6669030962       -0.5563254400
 C          1.0316243589       -1.4663126885       -0.5794612860
 C          0.1509560644       -2.5154222007       -0.5356938778
 C          0.6220258355       -3.8413831520       -0.4247838307
 C          1.9701657737       -4.0738971966       -0.3807816992
 C          2.8871769237       -3.0203922957       -0.4660709235
 S          4.5665311906       -3.4210202374       -0.3239398811
 C          5.3602142835       -1.9131883236       -0.6347275402
 C          6.7568582050       -1.9265793380       -0.7115369234
 C          7.4650118230       -0.7673159349       -0.8811510930
 C          6.7758419027        0.4628549773       -0.9557955808
 C          5.4099297851        0.5009428320       -0.8543425470
 C          4.6486589220       -0.6708716982       -0.6993678417
 C          2.2411539980        1.4010416643       -1.5492922888
 C          1.5812376596        2.5953554500       -1.3709864852
 C         -1.2012452082        3.2601088514        0.3216998615
 C         -1.8289538161        2.8021220968       -0.8284418978
 C         -2.6929304603        1.7304007328       -0.7570908008
 C         -2.9263799431        1.1042620748        0.4707045001
 N         -3.7512000393       -0.0249983919        0.5369699624
 C         -5.0154803581       -0.1441162067       -0.0051909984
 C         -5.7971438511        0.8118360609       -0.6383827122
 C         -7.0551912051        0.4339194953       -1.0667403488
 C         -7.5338598675       -0.8594331855       -0.8667501814
 C         -6.7690049071       -1.8083766411       -0.2174820597
 C         -5.5012379497       -1.4525738468        0.2229355148
 C         -4.4671898147       -2.1537658926        0.9318287893
 C         -4.3442538270       -3.4532710646        1.4046623500
 C         -3.1712873749       -3.8207248577        2.0348552127
 C         -2.1249699570       -2.9139145291        2.1875865853
 C         -2.2243968434       -1.6140083768        1.7281670866
 C         -3.4071634428       -1.2337568001        1.1094972829
 C         -2.3153618230        1.5933246460        1.6285725328
 C         -1.4486337465        2.6621786405        1.5500770181
 H          1.7551709457        2.8550499290        1.9999821559
 H          2.9384169416        0.6754663893        1.7001520622
 H          0.6503196391       -0.4593022942       -0.6465537215
 H         -0.9098121454       -2.3291800559       -0.5741483490
 H         -0.0798815054       -4.6572301790       -0.3724971846
 H          2.3595108122       -5.0766857794       -0.2889531604
 H          7.2586045846       -2.8799141585       -0.6403770829
 H          8.5399918494       -0.7881140172       -0.9544983332
 H          7.3294291286        1.3779741084       -1.0895596636
 H          4.8962929978        1.4481403612       -0.9050423405
 H          2.3905493926        0.9866373942       -2.5349979744
 H          1.1950326264        3.1577554239       -2.2058469936
 H         -1.6200382059        3.2964050790       -1.7638965834
 H         -3.1699915241        1.3486278725       -1.6472111833
 H         -5.4404825833        1.8206460931       -0.7804747840
 H         -7.6830739359        1.1583243444       -1.5637553537
 H         -8.5220015072       -1.1160891068       -1.2181114556
 H         -7.1467262161       -2.8055456533       -0.0491091389
 H         -5.1494671391       -4.1604125350        1.2748786836
 H         -3.0564387440       -4.8268644229        2.4096696209
 H         -1.2126248964       -3.2337366205        2.6688266255
 H         -1.4007661410       -0.9241925843        1.8356315866
 H         -2.5325977671        1.1290744834        2.5787255030
 H         -0.9615171082        3.0586404344        2.4266324536
  66
  -109.302893545800       0.172978965490465      !
 O          0.4207293823        5.2234822717        1.4031542117
 S          0.2037087715        4.5507766654        0.1499229088
 O          0.0650842642        5.3399653100       -1.0454326614
 C          1.4219582634        3.2745504414       -0.0967035077
 C          1.8360873078        2.5376152400        1.0134365844
 C          2.4056790540        1.2987112944        0.8369685634
 C          2.5626157907        0.7898811934       -0.4548246535
 N          3.0134936113       -0.5554408510       -0.6143012814
 C          2.0396264440       -1.5226508247       -0.6724589526
 C          0.6906152402       -1.1737085402       -0.8608515824
 C         -0.2987152663       -2.1216034667       -0.9070387043
 C          0.0057290729       -3.4849184919       -0.7094185271
 C          1.3059750276       -3.8589428879       -0.5014396112
 C          2.3380926192       -2.9138563171       -0.5092973220
 S          3.9403640180       -3.4881560503       -0.1804166183
 C          4.9250550923       -2.0892539034       -0.4626495382
 C          6.3125817105       -2.2564047604       -0.4166008690
 C          7.1561330064       -1.1857126734       -0.5502548525
 C          6.6166654647        0.1085899788       -0.7109081173
 C          5.2596515838        0.2979612112       -0.7249487111
 C          4.3645389107       -0.7801749930       -0.6116246525
 C          2.2164615365        1.5609004416       -1.5711753951
 C          1.6355777322        2.7943364250       -1.3861011232
 C         -1.1476347565        3.3923121620        0.2987150303
 C         -1.7041600686        2.8584161500       -0.8558627119
 C         -2.4850444238        1.7251148901       -0.7805022651
 C         -2.7034218007        1.1109887437        0.4563923751
 N         -3.4237087691       -0.0878418200        0.5288022648
 C         -4.6587604936       -0.3345889104       -0.0360387189
 C         -5.5121827152        0.5327963832       -0.7032609443
 C         -6.7213622361        0.0320693883       -1.1460276864
 C         -7.0821387178       -1.2964599979       -0.9284882404
 C         -6.2447917283       -2.1591537628       -0.2491199112
 C         -5.0238441880       -1.6795939091        0.2065567081
 C         -3.9425818564       -2.2682793312        0.9462784633
 C         -3.7035901472       -3.5446275460        1.4385727466
 C         -2.5128383171       -3.7892361682        2.0938174537
 C         -1.5619217648       -2.7836760184        2.2536398494
 C         -1.7772877376       -1.5050760402        1.7756125853
 C         -2.9792223505       -1.2487804763        1.1303190243
 C         -2.1747367380        1.6788354404        1.6181173519
 C         -1.3925819870        2.8106842517        1.5361504007
 H          1.6830357678        2.9535716159        1.9958552606
 H          2.7112323921        0.7004233949        1.6826236162
 H          0.4314276056       -0.1343337731       -0.9876227937
 H         -1.3181988171       -1.8253818734       -1.0895336725
 H         -0.7836991285       -4.2180302375       -0.7182416412
 H          1.5686611660       -4.8938939090       -0.3414290892
 H          6.6994226702       -3.2552127697       -0.2818035283
 H          8.2245654082       -1.3254117945       -0.5305253564
 H          7.2775620044        0.9531184601       -0.8199418635
 H          4.8569641627        1.2922322631       -0.8392756170
 H          2.3806317583        1.1629230158       -2.5614425546
 H          1.3242537298        3.4034263606       -2.2196162101
 H         -1.5004780522        3.3399622901       -1.7992055385
 H         -2.9031938923        1.2853138843       -1.6736578597
 H         -5.2466264755        1.5672587687       -0.8597752822
 H         -7.4041864624        0.6857164920       -1.6680191718
 H         -8.0362694960       -1.6493173974       -1.2903023386
 H         -6.5320595207       -3.1838276468       -0.0677717261
 H         -4.4347206392       -4.3274440863        1.3042106784
 H         -2.3082537197       -4.7750581276        2.4840361446
 H         -0.6338059600       -3.0092595765        2.7573961686
 H         -1.0278287557       -0.7361043987        1.8873344979
 H         -2.3844344583        1.2215994297        2.5733884347
 H         -0.9653331783        3.2660858582        2.4152881228
  66
  -109.302741462600       0.147265391387580      !
 O          0.4445446644        5.3255723587        1.3790985153
 S          0.2203351450        4.6466355041        0.1306061787
 O          0.0723194029        5.4296506609       -1.0674774232
 C          1.4292459382        3.3610573312       -0.1181991420
 C          1.8260119814        2.6139294041        0.9923966175
 C          2.3378853663        1.3501325957        0.8186454335
 C          2.4551203751        0.8244898278       -0.4710061935
 N          2.8322873407       -0.5434379921       -0.6230619674
 C          1.8097069105       -1.4534039142       -0.7534671463
 C          0.5005344917       -1.0316320709       -1.0395367561
 C         -0.5311186419       -1.9259265609       -1.1728399205
 C         -0.3158521810       -3.3034461625       -0.9667085384
 C          0.9398250644       -3.7461966282       -0.6510137784
 C          2.0182388411       -2.8574170085       -0.5699610340
 S          3.5494817042       -3.5152100802       -0.0894897630
 C          4.6358883971       -2.1838969638       -0.3268548518
 C          6.0044280655       -2.4298204215       -0.1830630120
 C          6.9167105430       -1.4123719247       -0.2786138339
 C          6.4667580752       -0.0934226177       -0.5003114047
 C          5.1272687884        0.1740027318       -0.6067799571
 C          4.1644472257       -0.8480483499       -0.5314129664
 C          2.1414572122        1.6075384730       -1.5889589785
 C          1.6162060593        2.8659532180       -1.4064383249
 C         -1.1193040926        3.4753640549        0.2929937589
 C         -1.6673229708        2.9225543836       -0.8571585888
 C         -2.3963675666        1.7556717147       -0.7779370949
 C         -2.5697523171        1.1251019837        0.4580490751
 N         -3.2189211400       -0.1133634590        0.5314826367
 C         -4.4389214781       -0.4325873801       -0.0295191257
 C         -5.3463149544        0.3836976983       -0.6899028203
 C         -6.5233277764       -0.1886402281       -1.1329861291
 C         -6.8003674682       -1.5381005844       -0.9221079481
 C         -5.9099314911       -2.3504878086       -0.2480282694
 C         -4.7201331902       -1.7985874287        0.2082549080
 C         -3.6022247621       -2.3229819596        0.9416127912
 C         -3.2850607403       -3.5840854722        1.4289373114
 C         -2.0776045683       -3.7594818692        2.0751727554
 C         -1.1860007808       -2.6999308169        2.2295396700
 C         -1.4803471514       -1.4351536978        1.7578555069
 C         -2.7007056383       -1.2480472127        1.1238532168
 C         -2.0595582959        1.7152463401        1.6168195955
 C         -1.3301185591        2.8812871078        1.5312694233
 H          1.7005094900        3.0413119415        1.9738299734
 H          2.6246177651        0.7442457949        1.6656413066
 H          0.3047304222        0.0207844727       -1.1721010808
 H         -1.5153890028       -1.5737963495       -1.4336182463
 H         -1.1381274805       -3.9946808764       -1.0490373291
 H          1.1327023634       -4.7934760627       -0.4744330609
 H          6.3221663278       -3.4461886854       -0.0063389192
 H          7.9714874295       -1.6132365795       -0.1859672082
 H          7.1822782415        0.7083223270       -0.5836497356
 H          4.7914441909        1.1863634266       -0.7689909793
 H          2.2844743268        1.1998005873       -2.5786020324
 H          1.3242542198        3.4825474737       -2.2415507118
 H         -1.4930334689        3.4139564078       -1.8013320027
 H         -2.8036315735        1.3012421420       -1.6688498246
 H         -5.1463578419        1.4336290142       -0.8408816273
 H         -7.2465427397        0.4243617826       -1.6497971022
 H         -7.7310374944       -1.9478834989       -1.2850192772
 H         -6.1325733100       -3.3920771532       -0.0721506113
 H         -3.9698530883       -4.4083306875        1.2975942669
 H         -1.8121914914       -4.7322380462        2.4613616518
 H         -0.2425749532       -2.8724309692        2.7259268663
 H         -0.7768634032       -0.6231690139        1.8655271234
 H         -2.2383952768        1.2460593145        2.5725231312
 H         -0.9137563948        3.3514977564        2.4077846467
