  66
       -109.72694530
 O          0.5460593222        5.5248198601        1.3286167969
 S          0.2757321692        4.8352062834        0.0958336101
 O          0.1440652407        5.6025493187       -1.1136901006
 C          1.4149556407        3.4819308552       -0.1481729876
 C          1.7381964831        2.7006238826        0.9653942129
 C          2.1032728822        1.3868443883        0.7990254613
 C          2.1492920795        0.8371863375       -0.4872048954
 N          2.3624778804       -0.5646452555       -0.6284366573
 C          1.2803052851       -1.3404143951       -0.9810574552
 C          0.0896479968       -0.7611578788       -1.4482365807
 C         -0.9836216332       -1.5265557739       -1.8308148216
 C         -0.9394498167       -2.9287429832       -1.7230630753
 C          0.1838275277       -3.5239021484       -1.2170964535
 C          1.3019106215       -2.7640405848       -0.8564340535
 S          2.6005882526       -3.6150805266       -0.0837265601
 C          3.8603737420       -2.4242564886       -0.0348479958
 C          5.1294958591       -2.8380021183        0.3754040997
 C          6.1645111897       -1.9448331421        0.4766532071
 C          5.9393550633       -0.5860691822        0.1711599018
 C          4.6931370814       -0.1543935544       -0.1957628359
 C          3.6056604632       -1.0426037919       -0.3046074241
 C          1.9421391517        1.6522013264       -1.6080924876
 C          1.5579069103        2.9615853988       -1.4331145071
 C         -1.0884397505        3.6980723586        0.2960735989
 C         -1.6284077540        3.1063813176       -0.8402985109
 C         -2.2510551068        1.8807462594       -0.7494806125
 C         -2.3128605604        1.2226436831        0.4834443996
 N         -2.7496768602       -0.1059246251        0.5627772099
 C         -3.9031326838       -0.6408027214        0.0303040090
 C         -4.9605224536       -0.0020523297       -0.6022341223
 C         -6.0203781157       -0.7795293969       -1.0277945529
 C         -6.0386795908       -2.1582400893       -0.8245975903
 C         -4.9988244910       -2.7961250046       -0.1771254102
 C         -3.9210422447       -2.0371543771        0.2588185136
 C         -2.7025558571       -2.3527976765        0.9502209503
 C         -2.1383110461       -3.5366951518        1.4055735402
 C         -0.8910870158       -3.4921517224        1.9965336301
 C         -0.2027310964       -2.2879037591        2.1266352851
 C         -0.7456608168       -1.0954032156        1.6888382634
 C         -2.0078786846       -1.1319471928        1.1123734923
 C         -1.8573534145        1.8675002572        1.6365339097
 C         -1.2433671052        3.0962650957        1.5415905455
 H          1.6661087554        3.1436296099        1.9452539852
 H          2.3264512052        0.7599876376        1.6501791765
 H          0.0154002565        0.3120938547       -1.5143444515
 H         -1.8741040511       -1.0512546607       -2.2090385866
 H         -1.7903669557       -3.5198452782       -2.0190190391
 H          0.2370527235       -4.5942841538       -1.0893339501
 H          5.2752430986       -3.8843579472        0.5973995270
 H          7.1449499653       -2.2750832711        0.7781568470
 H          6.7553084061        0.1161793651        0.2278253168
 H          4.5310090567        0.8870402613       -0.4264014441
 H          2.0583864724        1.2335457216       -2.5968369147
 H          1.3399108465        3.6013009284       -2.2734686836
 H         -1.5147523100        3.6091865262       -1.7879199633
 H         -2.6425060958        1.3983236688       -1.6324007161
 H         -4.9596306668        1.0675602269       -0.7473721145
 H         -6.8550706553       -0.3084073458       -1.5251345002
 H         -6.8852172168       -2.7307834735       -1.1729594415
 H         -5.0215775109       -3.8620244569       -0.0072181387
 H         -2.6633725078       -4.4727520484        1.2902314317
 H         -0.4335127680       -4.4019792013        2.3552560930
 H          0.7784237614       -2.2885954059        2.5799230858
 H         -0.2023680777       -0.1664098753        1.7785524153
 H         -1.9723354435        1.3808714644        2.5935268405
 H         -0.8572903053        3.6030014864        2.4116036223
