90
 energy: -133.953834661365 gnorm: 0.000107351905 xtb: 6.7.1 (edcfbbe)
C            7.40988096801428       -2.69355604245994       -0.83939402899341
C            6.41962728179312       -2.26532847646435        0.26034796798857
C            6.69531537593805       -3.04776380196179        1.55853781200610
C            6.60809511409101       -0.78934578264234        0.53916558079050
C            7.83675564928004       -0.32677338708581        0.98880075613410
C            8.05261575873157        1.00647425381055        1.28710980362695
C            7.01117150071170        1.91227778507469        1.15393648886583
C            5.78219239446043        1.48342799064145        0.70794126727446
C            5.56696933961996        0.13755935405657        0.37478324011587
N            4.32925568892453       -0.25648106502014       -0.09014433673149
C            3.31718128989194        0.72503630609700       -0.27702671148158
C            3.40562652894293        1.63258347473634       -1.34418544412570
C            2.40505137285698        2.55727285272112       -1.50331191430983
C            1.33838628548045        2.61457774261906       -0.60837257348088
C            1.22070715088106        1.69658480804643        0.45693001838969
C            2.22692888779372        0.76091692088810        0.59656412113565
C            0.00529212723667        1.74297667813109        1.36749964058781
C            0.00581590533745        0.58348277473207        2.37109512611215
C            0.01585642309982        3.04380283330601        2.19284026004900
C           -1.22038848698749        1.70695038440615        0.47041686914328
C           -2.22518166149057        0.77378599292094        0.61239049459742
C           -3.33158893533768        0.75111089528847       -0.24658095907312
N           -4.33801608296220       -0.23135720710943       -0.06269857932555
C           -4.03335174086077       -1.55156296038347       -0.30624598752281
C           -2.75098881608101       -1.90028682068477       -0.77681107063798
C           -2.41038001397482       -3.21175439238340       -0.98934523184916
C           -3.34199155625300       -4.22056574639904       -0.75478625794680
C           -4.61966058274434       -3.88105453060967       -0.33827479930367
C           -4.99644524945443       -2.56772966139055       -0.11474516286999
C           -6.41893189057281       -2.25167798158561        0.28767317192750
C           -7.35984427184924       -2.74306217535960       -0.82985846002613
C           -6.73902935684324       -2.98036505339284        1.60762004098130
C           -6.63814806659707       -0.77043277192220        0.49528443189435
C           -7.88631127566786       -0.30360487241133        0.87125729805637
C           -8.12631216499031        1.03914419054577        1.11725499947786
C           -7.07897710633906        1.95142483456251        1.01380777651098
C           -5.83066143063413        1.52204954595758        0.64049971653287
C           -5.59099296514808        0.16517086620065        0.34393791320774
C           -3.43149514401525        1.67574813691799       -1.30344067794178
C           -2.42751079929722        2.59219463066089       -1.46939100161221
C           -1.34530513237031        2.63633331272819       -0.58849302892927
S            0.00039274443385        3.70276594924506       -1.00089616463326
O           -0.00856172171213        3.93205875735438       -2.42616198981504
O            0.02002560218685        4.90185612267215       -0.18715762836921
C            4.04892142437908       -1.57414961039237       -0.38764303941005
C            2.78474679778403       -1.91752082355513       -0.89125335097527
C            2.46890538056174       -3.22612729328975       -1.17522421342180
C            3.40930987458388       -4.22466504415671       -0.97305410009460
C            4.66683729196221       -3.88779998136240       -0.50607333336462
C            5.01530202926117       -2.57732983156305       -0.21129878781492
H            7.20953112277902       -2.13917017408831       -1.75416545656733
H            8.43393046149997       -2.49644321622326       -0.53561126450240
H            7.31575933031869       -3.75434900718931       -1.05344632124833
H            7.70341662218158       -2.86037442071828        1.91664029544626
H            6.58484177872416       -4.11630330017391        1.39793214761094
H            5.99345527579729       -2.74139401975175        2.33179108773230
H            8.65298678407818       -1.02162450743878        1.11460832396174
H            9.02183749024217        1.33323072584183        1.63079832304649
H            7.15734355899463        2.95255140083143        1.40087682387498
H            4.96959000203092        2.18594110719531        0.61622765984222
H            4.24452406239297        1.58309021924478       -2.02132739505444
H            2.40658684124456        3.25911926067413       -2.32171391243801
H            2.20710505601694        0.02748030989767        1.38666713943357
H            0.88399183350750        0.64931561829041        3.00907725119714
H            0.00152753058778       -0.38428822400247        1.87357292055203
H           -0.86767974031617        0.65403468135237        3.01497367189713
H           -0.86516086229719        3.07832420145043        2.83093626798552
H            0.01717756665230        3.92231978605524        1.55785799084527
H            0.90347108923922        3.06958689522400        2.82219897564573
H           -2.20006986890849        0.03435362828235        1.39671745597751
H           -2.03559904811423       -1.12024397303520       -0.98146972670340
H           -1.42200836857530       -3.45859004868575       -1.34562196655200
H           -3.08094415914618       -5.25488048362808       -0.91416246050398
H           -5.33807900633583       -4.67317943563602       -0.19202329273378
H           -8.39742441100266       -2.54932077200412       -0.57387796614249
H           -7.13183690511431       -2.22573184092900       -1.75965405075729
H           -7.24170008943280       -3.81042017445153       -0.99281880995474
H           -6.07175665487617       -2.63256410348563        2.39376920511123
H           -7.76248300851910       -2.78866509326335        1.91629797297000
H           -6.61154715869158       -4.05334893957580        1.49774041152309
H           -8.70364162588370       -0.99960859338748        0.98359175618356
H           -9.11249228778267        1.36894312913402        1.40369889741076
H           -7.24465834789473        2.99505549889456        1.23216235216877
H           -5.01620502990881        2.22543312783070        0.57821324577654
H           -4.27793576754855        1.63347791927799       -1.97153824290179
H           -2.43452163054629        3.29914231086688       -2.28327532154437
H            2.05737793425015       -1.14098927398508       -1.06552585125066
H            1.49022890841026       -3.46852115622892       -1.56048091466208
H            3.17050989831600       -5.25456408078736       -1.18899126331910
H            5.39446331246673       -4.67381132463373       -0.37380499984142
