90
 energy: -134.048350471511 gnorm: 0.000015875034 xtb: 6.7.1 (edcfbbe)
C            8.80322139101748       -0.00399621545889       -0.60178080052562
C            7.38789801201035       -0.00297654800328       -1.20729875806264
C            7.46624330155825       -0.00430781604758       -2.74492803961493
C            6.66672979608883       -1.25953447544640       -0.75652589020539
C            7.18602189437272       -2.50378557762014       -1.08689619565864
C            6.57192057430216       -3.68132961193535       -0.70205136864667
C            5.40343956534848       -3.62624380735629        0.03578922974605
C            4.86523618238961       -2.40363366534140        0.37873642869473
C            5.48579224691023       -1.21311648961042       -0.00931982439354
N            4.91998440599654        0.00092109322419        0.34831157787895
C            3.73321224661555        0.00286064151031        1.12891708282974
C            3.80915586607845        0.00664259862739        2.51840270422927
C            2.63374667630219        0.00840967696399        3.23790342827432
C            1.41058664894340        0.00647054093745        2.58580867130878
C            1.30030264976934        0.00275215678404        1.20640841985045
C            2.50232716584820        0.00097688006134        0.49297067677416
C           -0.00001079475795        0.00051608865036        0.41610082610327
C           -0.00002830255380        1.27089197434850       -0.45942733272839
C           -0.00003658195664       -1.27479043576192       -0.45222358828065
C           -1.30028537692955        0.00275774543170        1.20647236146868
C           -2.50234441250031        0.00099819605710        0.49309316133816
C           -3.73319892319373        0.00288141151737        1.12909867842895
N           -4.92000520146888        0.00098174519582        0.34854500632123
C           -5.48811577174009        1.21324790168909       -0.01144967939983
C           -4.86949873985694        2.40568284613516        0.37380070991510
C           -5.41002642804238        3.62660481488507        0.02850575252297
C           -6.57886352479910        3.67804900947781       -0.70903410999867
C           -7.19085981896887        2.49860290142005       -1.09139855797824
C           -6.66920381731547        1.25597967321269       -0.75863230375001
C           -7.38790601205734       -0.00281811892405       -1.20708519299297
C           -8.80324195817970       -0.00346678257103       -0.60159646352798
C           -7.46621950585330       -0.00445903015402       -2.74471593187357
C           -6.66696108124411       -1.25940549727537       -0.75603743497033
C           -7.18646124198926       -2.50363696131117       -1.08615441277220
C           -6.57255259335162       -3.68120509531449       -0.70107590433997
C           -5.40405009338050       -3.62616457015252        0.03673417734301
C           -4.86564142442642       -2.40357464495331        0.37943096521195
C           -5.48601537819215       -1.21303329666473       -0.00884175752818
C           -3.80907597902785        0.00663225131591        2.51858795664440
C           -2.63363169115482        0.00838342486019        3.23803171989324
C           -1.41050302993917        0.00645758590967        2.58587795723074
S            0.00006849924973        0.00900176531679        3.67432733479554
O            0.00007923676421        1.23853830372275        4.42106750871378
O            0.00009461950837       -1.21709910310704        4.42670160970141
C            5.48829867308805        1.21316476674824       -0.01143752261578
C            4.86985277059617        2.40562427298971        0.37401099069652
C            5.41058424829098        3.62652601525459        0.02896381808834
C            6.57945334056499        3.67792465780309       -0.70852861103418
C            7.19126732292534        2.49845420408176       -1.09110959767916
C            6.66940315478478        1.25585061955229       -0.75859643046192
H            8.74058643304369       -0.00308023042928        0.48479174098504
H            9.35758255415227       -0.88524239868374       -0.91234914175892
H            9.35942914166264        0.87559800350078       -0.91372868441055
H            7.99111178670547        0.87493982179040       -3.10776299550707
H            6.46283895182529       -0.00354738885230       -3.16683078194328
H            7.98918097804347       -0.88529410425410       -3.10633258287714
H            8.09814478337675       -2.56266459680668       -1.66121037959609
H            7.00375354662567       -4.63177327311126       -0.97565596230609
H            4.90828774708599       -4.53365955017511        0.34740927227220
H            3.95481607217801       -2.36638033955774        0.95761651859527
H            4.77078174154970        0.00813493053043        3.00710290979372
H            2.62752916118048        0.01129346346600        4.31644806915517
H            2.50650548547597       -0.00199520744399       -0.58628669867157
H            0.87847849283661        1.30982431622698       -1.09606987737133
H           -0.00001710468884        2.15272568363737        0.17843724108462
H           -0.87855828297648        1.30982336043032       -1.09603799296495
H           -0.87858643900272       -1.31731393029780       -1.08858362627436
H           -0.00001764766123       -2.15299995807034        0.19062278641136
H            0.87847455207317       -1.31731430192670       -1.08863711484267
H           -2.50657520415254       -0.00195151493001       -0.58616406598362
H           -3.95869082140044        2.37127418187888        0.95224595069722
H           -4.91636555907439        4.53555538373549        0.33800857046562
H           -7.01251851800422        4.62714220604461       -0.98443836550231
H           -8.10317706384259        2.55464332536384       -1.66568817551153
H           -8.74062920106200       -0.00232611801119        0.48497710317837
H           -9.35929524650115        0.87615339876048       -0.91374622632929
H           -9.35774564596434       -0.88468635279246       -0.91198564916567
H           -6.46280626641657       -0.00396493611472       -3.16659808487149
H           -7.98930535876371       -0.88542887315597       -3.10594614510381
H           -7.99092464203595        0.87480565144784       -3.10774604921526
H           -8.09859513831417       -2.56248053938961       -1.66045478058948
H           -7.00454508885540       -4.63163227079778       -0.97448587076284
H           -4.90903785876989       -4.53359958441948        0.34851966034114
H           -3.95519677951755       -2.36635464389588        0.95827470645634
H           -4.77067815866724        0.00811481672282        3.00733478831569
H           -2.62736195685198        0.01125183782953        4.31657612556595
H            3.95901308079541        2.37124934821141        0.95240830021022
H            4.91705449483933        4.53549610620337        0.33861819940777
H            7.01326869319057        4.62700132158819       -0.98373723310816
H            8.10360547945566        2.55445893508139       -1.66536950323620
