90
 energy: -134.055099438773 gnorm: 0.000037315706 xtb: 6.7.1 (edcfbbe)
C            7.64067244638319       -2.56537349948092       -0.72322401357055
C            6.60294552261899       -2.17793972005996        0.34599072977163
C            6.85687986429957       -2.96292207730234        1.64597601690270
C            6.73745563877843       -0.69713575033624        0.64381907320315
C            7.93816874758681       -0.20894035814175        1.14197745292442
C            8.11131712275288        1.12333143870635        1.46629006069657
C            7.05211410877707        1.99898122632054        1.31101884915187
C            5.84953979248099        1.54113511294937        0.81539189182134
C            5.68306032443328        0.20109982340935        0.45422954985345
N            4.46337628778937       -0.22834229595442       -0.05433413744215
C            3.43270324807441        0.71798168817597       -0.26979445506913
C            3.54039723529890        1.65408308446171       -1.29242852211842
C            2.49651500629305        2.53401427332671       -1.50050798563139
C            1.37650111756995        2.48413956216567       -0.69307983784779
C            1.24346870759588        1.56566205404486        0.34323932159903
C            2.30099015359950        0.68518875656303        0.53952713088303
C            0.00033744095631        1.56274680269794        1.22017370692224
C           -0.00267012501181        0.37502632188990        2.18930209425509
C            0.00026278809027        2.84533757020428        2.07700979143161
C           -1.23996007972766        1.56886236711854        0.33924671721045
C           -2.30141533092279        0.69279764057687        0.53379155306769
C           -3.43086445623298        0.72904378962215       -0.27854471954957
N           -4.46676012950257       -0.21147621076336       -0.06288256393001
C           -4.23973082809628       -1.54649546104084       -0.37464625039412
C           -3.01456808770278       -1.93507977115037       -0.92531224815096
C           -2.75708403050086       -3.25563862259584       -1.22751487543961
C           -3.72425754330752       -4.21670717651932       -0.99716616963069
C           -4.94877015360326       -3.83040894868339       -0.48593898738520
C           -5.23486548852790       -2.50818834741087       -0.17273880816425
C           -6.61407103110923       -2.15063644806725        0.34658950676035
C           -7.65301195795582       -2.53979183351404       -0.72081419560295
C           -6.87129709813770       -2.92769304185120        1.65069171896646
C           -6.74296969415724       -0.66776910134362        0.63656130494117
C           -7.94203689038932       -0.17241730454443        1.13162697776758
C           -8.11020907469411        1.16212164268218        1.44914488136710
C           -7.04751284773221        2.03283473751100        1.29008212225305
C           -5.84646206634253        1.56783650829481        0.79742508534757
C           -5.68496628472293        0.22538338367825        0.44302207721214
C           -3.53160820578564        1.66348649755893       -1.30340792909742
C           -2.48377751692668        2.53916932899474       -1.50968731110260
C           -1.36658468449274        2.48656774530782       -0.69855421443213
S            0.00676440898717        3.54911243062680       -1.12916130858022
O            0.01008632990075        3.73181704425533       -2.55475513018619
O            0.00556118315743        4.74810795469673       -0.32862659448244
C            4.23116788255529       -1.56088194761128       -0.37292937484137
C            3.00463129978100       -1.94200609758280       -0.92573921304748
C            2.74217038084204       -3.26001059068732       -1.23474098790402
C            3.70560594223103       -4.22593478244992       -1.00913628405834
C            4.93142381298256       -3.84694037333288       -0.49558129708035
C            5.22250398759056       -2.52744370888083       -0.17555692554652
H            7.45158774790557       -2.01024462014735       -1.64013094013156
H            8.64819741546249       -2.33807099971297       -0.38635861982258
H            7.58863615898288       -3.62686484892935       -0.94872681842130
H            6.78000790000768       -4.03303041266129        1.47525683981573
H            6.12181548835558       -2.68127972336588        2.39771894515251
H            7.84716153922417       -2.75253968832355        2.03979747339538
H            8.76682147004643       -0.88564763062782        1.28529450067513
H            9.05967665931875        1.47008322191083        1.84700462395655
H            7.15711693092584        3.03977808010844        1.57794729283501
H            5.02513741233407        2.22957174160609        0.71163517354030
H            4.42228467196915        1.67533026562341       -1.91368147426845
H            2.51559557239086        3.25728901594865       -2.30011870966398
H            2.27030529884460       -0.06439588752868        1.31285650436222
H            0.87007099354751        0.42264065932735        2.83537002066443
H           -0.00344818669474       -0.57615589138193        1.66140841986105
H           -0.87686520670128        0.42517699598203        2.83320243986221
H           -0.88418428838505        2.86047205672841        2.71051181888914
H            0.00177342204375        3.74047429667412        1.46454208422008
H            0.88293660100106        2.85910706520436        2.71299705942532
H           -2.27591713869781       -0.05560280704939        1.30845779411392
H           -2.25866653381090       -1.19251395623996       -1.12936007580874
H           -1.80088047807176       -3.52933895854980       -1.64779351449643
H           -3.53392759045606       -5.25420504291963       -1.22504647815287
H           -5.70322295015092       -4.58659320086448       -0.33107850499522
H           -8.65972558965239       -2.30664008705381       -0.38553361956084
H           -7.46143532545668       -1.99045264914999       -1.64068669789670
H           -7.60514259302925       -3.60270239042601       -0.94046718242826
H           -6.13556033931088       -2.64460171523121        2.40123895539975
H           -7.86099111398826       -2.71168664375703        2.04294202270541
H           -6.79813011168997       -3.99897173902391        1.48577435714750
H           -8.77335170949161       -0.84519480294567        1.27799210269292
H           -9.05741147485193        1.51446253272157        1.82760017333842
H           -7.14857299736622        3.07536708280057        1.55170736651402
H           -5.01940461261208        2.25262230178611        0.69081536725812
H           -4.41155930400345        1.68716842656312       -1.92731184980398
H           -2.49778698221518        3.26143151426287       -2.31032197817420
H            2.25154834585057       -1.19560609898566       -1.12613792683404
H            1.78501196290211       -3.52787225062926       -1.65660487814046
H            3.51139969997544       -5.26150555089603       -1.24243961436161
H            5.68294304489089       -4.60678552661800       -0.34443057790914
