90
 energy: -133.953823648453 gnorm: 0.000077871816 xtb: 6.7.1 (edcfbbe)
C            7.53848560166486       -2.59066885967873       -0.80541671595432
C            6.49170802884708       -2.23449154578267        0.26726184340307
C            6.73160561286760       -3.06640861626540        1.54155942434768
C            6.63090984839220       -0.76772920584525        0.61608630841511
C            7.82702239828947       -0.29588287798033        1.13818166452057
C            7.99734527059953        1.02911858364895        1.49633541823473
C            6.94288395670443        1.91700026143617        1.34729476730169
C            5.74543696077590        1.47869208758445        0.83004352571446
C            5.57611382128596        0.14137183652961        0.44194271592250
N            4.36850254512212       -0.26239797783179       -0.08843929821794
C            3.34191491263211        0.70451735951672       -0.28104073260469
C            3.43079430261489        1.62115954090958       -1.33914503466475
C            2.42080406360188        2.53571192372670       -1.50071989835373
C            1.34628885054474        2.57328279870101       -0.61481722268512
C            1.22882814060742        1.64663398925020        0.44182361391567
C            2.24336270521971        0.71932162110837        0.58196978633589
C            0.01134992732864        1.68179846638502        1.35018191059023
C            0.01180217522094        0.51192567522047        2.34158600984692
C            0.02461822035485        2.97479007466744        2.18848737627397
C           -1.21851976448095        1.65971732420427        0.45832359040354
C           -2.23491815195712        0.73983540414859        0.60619785451046
C           -3.35101848740446        0.73896579358504       -0.24039212609660
N           -4.37746675080025       -0.22055830209835       -0.04272156330187
C           -4.11242407574736       -1.54496273067997       -0.30462423938931
C           -2.84779427093009       -1.92237314863236       -0.80169945620383
C           -2.54676643218553       -3.23942540810312       -1.03577687935974
C           -3.50208405837500       -4.22594292754398       -0.79679397204917
C           -4.76243609235008       -3.85752899444845       -0.35214258920426
C           -5.09946781368741       -2.53788413601610       -0.10566206759291
C           -6.50424908073411       -2.18815254859263        0.32915708706900
C           -7.48038705094182       -2.63776440604748       -0.77581279174704
C           -6.81881414940210       -2.92650864797268        1.64513217914138
C           -6.67865251603513       -0.70467382567221        0.56063397112499
C           -7.90449364319971       -0.20888425943168        0.97001986761454
C           -8.10250259090540        1.13711419877046        1.23667740612170
C           -7.03311040108657        2.02283168828967        1.11849545342167
C           -5.80610768970696        1.56502132846640        0.71171215959679
C           -5.60935057469292        0.20487941335462        0.39580970496833
C           -3.44761870901025        1.66828189126080       -1.29297674443551
C           -2.43172213602685        2.57038589593069       -1.46581879617629
C           -1.34139790586053        2.59540593401967       -0.59450267822294
S            0.00610865837057        3.66127333966621       -1.00177905838508
O           -0.00263680766623        3.89960831181658       -2.42547189513410
O            0.02581217720318        4.85487632523832       -0.18002529086092
C            4.13192096410833       -1.57284085946707       -0.44739602262053
C            2.89401752345014       -1.92435476271716       -1.00627830953107
C            2.62251362854281       -3.22640149303244       -1.35894992332274
C            3.58254290007301       -4.20855190452476       -1.17004854514357
C            4.81316507529411       -3.86277416350562       -0.64214892090255
C            5.11643852638336       -2.55876131815396       -0.27684665576503
H            7.36308366463591       -2.00199154893497       -1.70373983465983
H            8.54325437538846       -2.38243974903435       -0.44913732097419
H            7.48101571834686       -3.64311972723930       -1.06812480458741
H            6.65465339428225       -4.12914632373717        1.33069594382582
H            5.99016666970710       -2.81053459965738        2.29601939628985
H            7.71865758101192       -2.87171663106677        1.95078146997553
H            8.65344590986426       -0.97670698239604        1.27387278593953
H            8.94200092320383        1.36343758567714        1.89658212847960
H            7.05417280592411        2.95058649219630        1.63686440098698
H            4.92229872305647        2.16679889860428        0.72331382078735
H            4.27826839410948        1.58871428455277       -2.00652861318548
H            2.42254129707116        3.24537054118638       -2.31236272873267
H            2.22387365891613       -0.02237332987563        1.36429770350959
H            0.89130559158303        0.56914650475001        2.97849983551188
H            0.00435660751339       -0.45018712142732        1.83323414725111
H           -0.85976128854769        0.57721499792747        2.98855334421312
H           -0.85537299792194        3.00417960950325        2.82825379803608
H            0.02572855764014        3.85916223809518        1.56146839079056
H            0.91330401465205        2.99377707260773        2.81657647918678
H           -2.21264888502398       -0.00370123502334        1.38669729214237
H           -2.11539433621481       -1.15883527900792       -1.00866310646161
H           -1.57179989537722       -3.50902259827175       -1.41196626889062
H           -3.27219882491492       -5.26473353026244       -0.97378462187457
H           -5.49900627130426       -4.63209179397739       -0.20197503807574
H           -8.50683362573045       -2.41855899371030       -0.49648719307498
H           -7.25619567622794       -2.11425196612312       -1.70306338039471
H           -7.39541959746569       -3.70567366438598       -0.95506291129894
H           -6.12698752377530       -2.60844414796424        2.42258362911222
H           -7.83036321000970       -2.71115838446631        1.97657524311282
H           -6.72341993286499       -4.00091265253242        1.51803605461776
H           -8.73791077481592       -0.88371738005724        1.09303554029900
H           -9.07246697256903        1.48985057662650        1.54972482250748
H           -7.16606523657539        3.06789673875941        1.35180365585260
H           -4.97483855020749        2.24723405266091        0.63719479984710
H           -4.30242252929359        1.64247511058705       -1.95116271365620
H           -2.43691469273983        3.28175352745352       -2.27585359136463
H            2.15211768149360       -1.15871453380490       -1.16762483717301
H            1.66350236317636       -3.47588277372110       -1.78683608170852
H            3.37915096955970       -5.23302938514603       -1.44115539485632
H            5.55563430827448       -4.63605276767091       -0.51736909970405
