74
 energy: -109.438474171079 gnorm: 0.000068310155 xtb: 6.7.1 (edcfbbe)
C            7.40754262271580       -1.41758226646651        0.51646386912003
C            6.01836244276516       -0.78446371808617        0.60263827106405
C            5.74254987363836       -0.42799154162748        2.08135743643178
C            5.90462786981167        0.48790360808390       -0.21091224018503
C            6.99008891415162        1.21826453908636       -0.66857069795213
C            6.81661016378278        2.41449505006852       -1.34506973547116
C            5.53969756242525        2.89601585721689       -1.58638542237021
C            4.44385169156763        2.17811392583308       -1.15564676429336
C            4.61559915135234        0.97911686335326       -0.46136604665858
N            3.50280606835955        0.22654870801083       -0.08580610233650
C            2.33029318158750        0.88660683850321        0.28355606645616
C            2.41937700982914        2.01841158378293        1.08519563212975
C            1.24942401255630        2.63766130086590        1.51044664584851
C            0.00094424733867        2.10294878846376        1.16138181209982
C           -1.24800506845348        2.63371943882678        1.51480965590030
C           -2.41745992607762        2.01066643172459        1.09378092988240
C           -2.32759918229210        0.87906561469743        0.29194726259903
N           -3.49931130250273        0.21520471094986       -0.07317922673803
C           -3.63532209885477       -1.17691884534083       -0.09001303809081
C           -2.55542327654088       -2.00485080842532       -0.38876905732828
C           -2.72968750715501       -3.37092142901632       -0.48055460474798
C           -3.98294167406657       -3.92250624417394       -0.27557376037099
C           -5.05313256436713       -3.10412294285966        0.04748647551928
C           -4.90174412842214       -1.73128417440087        0.16039371757351
C           -6.00956152209708       -0.80368409377509        0.62327823921209
C           -5.73047833519507       -0.44604147071968        2.10110096888361
C           -7.39696186063903       -1.44125890010383        0.54138739422649
C           -5.90234737269080        0.46891364937887       -0.19078762937679
C           -6.99154028648942        1.19580383401717       -0.64508579137210
C           -6.82398698140002        2.39260963772335       -1.32206261007297
C           -5.54937115333934        2.87818725033510       -1.56734298905396
C           -4.44991264706695        2.16372652844096       -1.14010737212186
C           -4.61566287301705        0.96419330479128       -0.44528540534666
N           -1.13775106892816        0.38470888252476       -0.08417481526331
C            0.00135504122999        0.92331435176736        0.32853705577266
N            1.14071098701978        0.38840592574327       -0.08828577579800
C            3.64319280388203       -1.16514047430749       -0.10351995720528
C            2.56505579631553       -1.99640486090785       -0.39933690274557
C            2.74339739655986       -3.36189507148425       -0.49197852273591
C            3.99900278744048       -3.90953458887997       -0.29085762563872
C            5.06755468177766       -3.08784258880878        0.02921224348767
C            4.91212843749295       -1.71551817686081        0.14289169563083
H            7.45435741152694       -2.30614159104563        1.13996816818912
H            8.15775521467427       -0.72572906637511        0.88974862701740
H            7.64932306029962       -1.68718951078899       -0.50904777344217
H            5.78607902213150       -1.32626016809273        2.69344567372353
H            6.48860710350866        0.27890686230911        2.43853852137570
H            4.75808418515701        0.01866235165736        2.20055425414485
H            7.99277323832716        0.86396211748084       -0.49541951572699
H            7.67832058687670        2.96915290907901       -1.68435932961112
H            5.39685760708640        3.82308938989000       -2.12111112770492
H            3.44306804691719        2.52808705756412       -1.36238801888314
H            3.38528485402585        2.37970698891771        1.40361949514279
H            1.29388379419743        3.51731904250665        2.13468708764014
H           -1.29307223582089        3.51329777261758        2.13911695051260
H           -3.38339676966273        2.36892922067809        1.41553004384383
H           -1.58864659642351       -1.55442504119681       -0.54867957684770
H           -1.88622632146118       -4.00235277053780       -0.71642912928981
H           -4.12760054482950       -4.98997287481283       -0.35013341649379
H           -6.01458320917449       -3.55870855676465        0.22056322588038
H           -5.76918832025384       -1.34434554035063        2.71346270690247
H           -4.74714581542699        0.00389903499873        2.21725464037520
H           -6.47779400263884        0.25844614745547        2.46041206606237
H           -7.64096187603052       -1.71181577965236       -0.48334805374571
H           -8.14825297753898       -0.75173594869807        0.91680294691042
H           -7.43907478015161       -2.32985457332744        1.16517672829173
H           -7.99254543907004        0.83830235690174       -0.46882677399317
H           -7.68853645656692        2.94453668782687       -1.65857127286191
H           -5.41111953199457        3.80574599554368       -2.10242959246018
H           -3.45092018530056        2.51687544839998       -1.35005868156729
H            1.59637167192089       -1.54901968751221       -0.55619558518675
H            1.90127700822060       -3.99596572161932       -0.72555033369719
H            4.14683125072100       -4.97651610223201       -0.36613203596907
H            6.03096325414742       -3.53940709699545        0.19928428489045
