74
 energy: -109.515238573529 gnorm: 0.000057420065 xtb: 6.7.1 (edcfbbe)
C            7.04497786676410       -1.56147896027962        1.13615977470335
C            5.70723864678998       -0.85348508340267        0.92020368130722
C            5.14941738798665       -0.45184314862786        2.30230073722603
C            5.84228492796395        0.39585677990348        0.07212832135025
C            7.04442554520774        1.01757058565005       -0.23112101901446
C            7.07793786023075        2.17203086568931       -0.99519305455840
C            5.90305228617066        2.71548277124363       -1.48581599455693
C            4.69651929215494        2.10205518517921       -1.20969731243693
C            4.66037491108040        0.95761620606941       -0.41889191165202
N            3.44371828380705        0.29133638676001       -0.18754145354885
C            2.29042960545907        0.98593568774344        0.09340546287705
C            2.39336002734736        2.27500354875979        0.69153832074432
C            1.25036127491142        2.94599575875578        1.01115531841661
C           -0.00035758415419        2.35913114130295        0.74052458350779
C           -1.24830473947184        2.94286247509610        1.03070206112481
C           -2.39487726015034        2.27520805492424        0.71725964755271
C           -2.29895494983296        0.99646882579727        0.09579312189996
N           -3.45150951225302        0.31041772709006       -0.20275972662179
C           -3.52231430847699       -1.09054022291325       -0.36902372658302
C           -2.54192888703600       -1.80039869620526       -1.04930753633625
C           -2.67353898185351       -3.16644659071603       -1.22087656048026
C           -3.79195336444519       -3.82055093982188       -0.73826511925951
C           -4.77505706525729       -3.10925977930547       -0.07062010643273
C           -4.65591937812834       -1.74316994625592        0.13288846580830
C           -5.67229721537489       -0.91528403078720        0.90228051860072
C           -5.07853495097580       -0.58031329595931        2.28713188364606
C           -6.99672983874264       -1.64798605089871        1.11828123348098
C           -5.84275782659346        0.37468764339254        0.12393426498661
C           -7.05873295975102        0.99884920275678       -0.11167279070973
C           -7.12493601268271        2.19091613841724       -0.81331756329312
C           -5.97057087228004        2.76813867815934       -1.31394098014480
C           -4.75120674765333        2.15276668490154       -1.10655156669744
C           -4.68097420879030        0.97298896016813       -0.37211649771048
N           -1.14088633706428        0.41654769731830       -0.13921623103428
C           -0.00390148267886        1.05715829686294        0.16328031458897
N            1.13028943868834        0.40897848010232       -0.13580263221355
C            3.52466932205410       -1.11525856706989       -0.28080498064093
C            2.53189956731287       -1.87081581803830       -0.89051389609017
C            2.67204687422241       -3.24332075578610       -0.98839344462691
C            3.81064071094846       -3.85999363113806       -0.50385149174755
C            4.80512883193711       -3.10394164008444        0.09404177286366
C            4.67828194745463       -1.72967472162537        0.22452334139218
H            6.90842333213891       -2.43520273497426        1.76779674256290
H            7.73861279472643       -0.89925203820820        1.64795937751144
H            7.48011809380936       -1.87091623577800        0.18867388236415
H            5.02092272137251       -1.33808364820309        2.92010184313323
H            5.84035697773822        0.22624349004687        2.79942476717442
H            4.18515659034218        0.04232765737279        2.21293342501049
H            7.97347456004307        0.60846702951721        0.13035309734813
H            8.02449563915600        2.64388362962320       -1.21227934297123
H            5.92449029420038        3.60670182834330       -2.09522777185950
H            3.77487112656349        2.49936303183170       -1.61048318158453
H            3.36332344406789        2.69018988712181        0.91592511041487
H            1.29039667105729        3.91949400464486        1.48233967410773
H           -1.28326401406980        3.91158861582555        1.51198939468811
H           -3.36149871530936        2.68684639176933        0.96119058911102
H           -1.67887831243329       -1.27820834380652       -1.42247680067182
H           -1.90449559216295       -3.71404814456509       -1.74490942060463
H           -3.90405816527243       -4.88560538027537       -0.87868418273402
H           -5.63818038531336       -3.63974693373480        0.29685475047940
H           -4.91952819147211       -1.49650470400218        2.85182692480054
H           -4.12403556747977       -0.06774121171833        2.19683799356264
H           -5.76306737937423        0.05955773108084        2.84052618439647
H           -7.45626147555372       -1.91165357891152        0.16845467644317
H           -7.68153157681340       -1.02136385171215        1.68394654224061
H           -6.83361293976159       -2.55232606766458        1.69843100926585
H           -7.97284955272181        0.56258270351102        0.25603743053546
H           -8.08135065914587        2.66475477252039       -0.97590089529287
H           -6.01831988982201        3.68763502369968       -1.87812759904242
H           -3.84599013720112        2.57649385094763       -1.51759756969299
H            1.65273924183612       -1.37739146250880       -1.26526288541753
H            1.89277603566938       -3.82606768884409       -1.45648597927285
H            3.92933652411728       -4.93031322016246       -0.58757477192457
H            5.68336495616135       -3.60584134646605        0.46583488573411
