74
 energy: -109.438539404069 gnorm: 0.000080647258 xtb: 6.7.1 (edcfbbe)
C            7.44118749020680       -1.40502570115586        0.34385278941338
C            6.04792221789025       -0.79471787873534        0.49925625380063
C            5.80719788409466       -0.52281306433487        2.00186573382019
C            5.89824621753591        0.51762360728402       -0.24146225467817
C            6.96303721494651        1.28284418986171       -0.69047410845402
C            6.75876432200988        2.50958524261884       -1.30034625630002
C            5.47069745506405        2.98764669000974       -1.48134312788182
C            4.39465767655512        2.23650303964012       -1.05730969848974
C            4.59751003082477        1.00574044858014       -0.43013899079065
N            3.50381728170845        0.22107530449962       -0.06329324810387
C            2.32902015314063        0.84973843878810        0.35250041139698
C            2.41816030526873        1.93896741285421        1.21082558404699
C            1.24828489760865        2.53500655530306        1.66818433630197
C           -0.00009357302750        2.01998392911398        1.29058142637911
C           -1.24867008816292        2.53837247038992        1.66378593008980
C           -2.41811420826446        1.94323193596029        1.20441383268837
C           -2.32820452937090        0.84975239680388        0.35197902722872
N           -3.50451847482325        0.22112637640552       -0.06211771577745
C           -3.66784603383400       -1.16551878470462       -0.12558515251782
C           -2.58987551911341       -2.00862787757191       -0.38768126563295
C           -2.78719330981794       -3.36671415026385       -0.53378956676282
C           -4.06210091678041       -3.89513503278367       -0.42196508279720
C           -5.13104842789732       -3.06346124552153       -0.12964211247083
C           -4.95711605927453       -1.69939319187973        0.04044011451768
C           -6.06721169926210       -0.76360345552578        0.48072330655374
C           -5.85462404629066       -0.46439971826310        1.98246356690119
C           -7.46174728164365       -1.36658683850206        0.30852554440128
C           -5.89363957089527        0.53397026854328       -0.28053734618400
C           -6.94452303963201        1.30128185644071       -0.75793999253206
C           -6.72013521074280        2.51576072129772       -1.38508619716529
C           -5.42526935282043        2.97947502202196       -1.55474747846291
C           -4.36263555328636        2.22605544652924       -1.10222602126523
C           -4.58595152680629        1.00766378679941       -0.45785748008306
N           -1.13900646624584        0.36379108786874       -0.03726424921040
C            0.00008465713534        0.88106915658022        0.40299498200134
N            1.13964298549137        0.36611805434451       -0.03873544731570
C            3.65784088953690       -1.16553204302199       -0.15849311260069
C            2.57991221979807       -1.99391475547346       -0.46334424755554
C            2.77161736183617       -3.34885457663637       -0.64274544899869
C            4.04074336809090       -3.88884633585711       -0.52106282728532
C            5.10907704633688       -3.07264223350537       -0.18618905739443
C            4.94018953519602       -1.71250943623564        0.01725226124724
H            7.51281669410835       -2.32607725688880        0.91577762411960
H            8.19272397074281       -0.72555690318250        0.73675012272800
H            7.66031127790332       -1.61450452467760       -0.70060255940147
H            5.87513622738375       -1.45280333970024        2.56215012744448
H            6.55573955082757        0.17131110098809        2.37835602314536
H            4.82204692094284       -0.09403486136842        2.17041696362157
H            7.97367622220124        0.93171471290947       -0.56307283363234
H            7.60487450434338        3.09064062523534       -1.63469119023177
H            5.30336313224665        3.93877782529724       -1.96429980283296
H            3.38534965725675        2.58591565744983       -1.21846635896378
H            3.38448418602671        2.28643130904959        1.54311934400062
H            1.29260335661648        3.38263193239621        2.33529728473793
H           -1.29323773862211        3.38777297798468        2.32857383115300
H           -3.38513504732622        2.29419182183357        1.53103865958745
H           -1.60661638015450       -1.57534637501935       -0.48110182244286
H           -1.94486648967452       -4.00965984116824       -0.74101581667824
H           -4.22530340800317       -4.95561703892537       -0.54300536684390
H           -6.11007763650882       -3.50138186957323       -0.02605399793936
H           -5.94479958814611       -1.38208910105306        2.55960026128395
H           -4.86812611009301       -0.04341974488553        2.16263580118334
H           -6.60264005168657        0.24559663637967        2.32921330246163
H           -7.66116864920580       -1.59383893392126       -0.73615341895923
H           -8.21591748125355       -0.67462936472827        0.67346884328642
H           -7.55224783020272       -2.27618728856372        0.89578934067401
H           -7.96017140472704        0.96158096411965       -0.63989038033841
H           -7.55585936808851        3.09848555076347       -1.74184100788292
H           -5.24211594437554        3.92075305813213       -2.05104326370489
H           -3.34773577894873        2.56320700364042       -1.25420189027092
H            1.60119223983741       -1.55175657942041       -0.56245203897822
H            1.92940437166201       -3.98013389913203       -0.88363582071934
H            4.19960390777742       -4.94671909119013       -0.66799450414170
H            6.08340945962120       -3.51940571927907       -0.07618589218102
