  74
       -109.39617322
 C          7.3910329337       -1.4605380996        0.3738058338
 C          6.0106821137       -0.8191140298        0.5070030548
 C          5.7558280568       -0.5291765687        2.0029643487
 C          5.8975243499        0.4906390460       -0.2428662573
 C          6.9808460919        1.2263326506       -0.6943731657
 C          6.8068315794        2.4573947764       -1.3046551343
 C          5.5312421657        2.9679576156       -1.4819995207
 C          4.4368571280        2.2441340796       -1.0587271556
 C          4.6087403589        1.0080906484       -0.4336816188
 N          3.4985487095        0.2477138340       -0.0722350677
 C          2.3330528063        0.8948682561        0.3348226901
 C          2.4242908613        1.9978036313        1.1757508350
 C          1.2554361474        2.5973896264        1.6299224180
 C          0.0048616220        2.0755525697        1.2703197498
 C         -1.2443524555        2.5903445857        1.6462720537
 C         -2.4149146609        1.9861353690        1.2035708647
 C         -2.3280587241        0.8848719955        0.3604703122
 N         -3.4982286244        0.2411993930       -0.0429139533
 C         -3.6325930392       -1.1466693062       -0.1182688292
 C         -2.5369963969       -1.9672167221       -0.3781464710
 C         -2.7065617098       -3.3271591563       -0.5362317669
 C         -3.9704976409       -3.8823463361       -0.4375088965
 C         -5.0573771005       -3.0740255673       -0.1473332908
 C         -4.9109390876       -1.7087821611        0.0340349116
 C         -6.0405889984       -0.7991581159        0.4761561511
 C         -5.8383903295       -0.5076897816        1.9798187056
 C         -7.4207886803       -1.4290820248        0.2925940572
 C         -5.8906358739        0.5083688480       -0.2713309632
 C         -6.9545093788        1.2583671695       -0.7456075578
 C         -6.7527257436        2.4867056099       -1.3525693066
 C         -5.4672012627        2.9801686955       -1.5048337797
 C         -4.3916876579        2.2429441334       -1.0576130457
 C         -4.5918273970        1.0103668204       -0.4333144122
 N         -1.1375376918        0.4041062749       -0.0281339121
 C          0.0024948601        0.9249931678        0.3966911691
 N          1.1405296639        0.4103354231       -0.0413121096
 C          3.6223348465       -1.1409947928       -0.1672664348
 C          2.5304463334       -1.9467036652       -0.4812345701
 C          2.6955071803       -3.3050994587       -0.6576269008
 C          3.9508415280       -3.8725127064       -0.5241765837
 C          5.0333171602       -3.0787765131       -0.1823345204
 C          4.8902471581       -1.7158441069        0.0177858211
 H          7.4382537922       -2.3748070231        0.9593069068
 H          8.1548519117       -0.7920813424        0.7622073281
 H          7.6150059199       -1.6907256519       -0.6651402314
 H          5.7920335791       -1.4557804027        2.5717798811
 H          6.5163420718        0.1487166740        2.3852995384
 H          4.7801877535       -0.0743894253        2.1513002204
 H          7.9827219134        0.8496150197       -0.5681604751
 H          7.6670928908        3.0156058468       -1.6410691780
 H          5.3886931695        3.9237524349       -1.9629606939
 H          3.4375573089        2.6188232651       -1.2199530207
 H          3.3915542520        2.3503220454        1.4984489962
 H          1.3019268084        3.4537432506        2.2845277644
 H         -1.2873508383        3.4454463472        2.3026783075
 H         -3.3807396581        2.3353562207        1.5342531307
 H         -1.5608308379       -1.5155053950       -0.4592346780
 H         -1.8503786430       -3.9520830112       -0.7404496059
 H         -4.1122539438       -4.9447546158       -0.5666359670
 H         -6.0283502182       -3.5321591531       -0.0532946089
 H         -5.9080856735       -1.4316740982        2.5498630341
 H         -4.8626805944       -0.0652459022        2.1624382149
 H         -6.6034179393        0.1816740870        2.3313537148
 H         -7.6091528933       -1.6543460216       -0.7545779781
 H         -8.1924715892       -0.7555007792        0.6556048859
 H         -7.4975113043       -2.3444369981        0.8731484767
 H         -7.9636309619        0.8949485983       -0.6403768605
 H         -7.5988073758        3.0558564141       -1.7060786035
 H         -5.3019896123        3.9330446679       -1.9842947073
 H         -3.3847254622        2.6045176686       -1.1994593006
 H          1.5611727012       -1.4853887322       -0.5864276406
 H          1.8427072496       -3.9192090850       -0.9043224062
 H          4.0886656499       -4.9336033213       -0.6675001206
 H          5.9973425912       -3.5457048896       -0.0632281147
