74
 energy: -109.515239588572 gnorm: 0.000062321838 xtb: 6.7.1 (edcfbbe)
C            7.07304671951009       -1.67252280405300        0.46194467580732
C            5.72848053445875       -0.94521384828715        0.48800508498795
C            5.18371862857507       -0.99666193113478        1.93141139718437
C            5.84633636915582        0.50648909003228        0.06771240361819
C            7.04113101796177        1.20371141760252       -0.03329556088353
C            7.05947844945046        2.53942143378665       -0.39809381359299
C            5.87652086136864        3.19653084106217       -0.69004543077784
C            4.67730840210710        2.51520600025057       -0.61357884516186
C            4.65606873255131        1.18126741821434       -0.21732456875217
N            3.44539377875778        0.46606540493085       -0.19463836422323
C            2.29084582371608        1.03777520598680        0.28792136551277
C            2.39370455344710        2.07648351868941        1.25776350425069
C            1.25091618289774        2.62036419635563        1.76459062996376
C            0.00013571161096        2.15027684456680        1.32115278136958
C           -1.24768176141298        2.62445545066073        1.76891458466746
C           -2.39415698471258        2.08887250273077        1.26178746981932
C           -2.29833079225316        1.05680922949763        0.28393743990832
N           -3.45328718383690        0.49701878464163       -0.20814167159565
C           -3.53566519513270       -0.79643851182972       -0.76926219102124
C           -2.54883749262176       -1.29911388417969       -1.60688894192104
C           -2.69109103318367       -2.55760040036163       -2.16266863191067
C           -3.82644190101122       -3.30379070385293       -1.90619235034878
C           -4.81515143471883       -2.79659015810443       -1.07956670748174
C           -4.68609563790349       -1.54716465687299       -0.49303100832379
C           -5.70850164811205       -0.95897136770828        0.46565479887433
C           -5.13850166273076       -1.04680590306038        1.89742304692879
C           -7.04517974371146       -1.70066923517066        0.44062957888367
C           -5.84957841421885        0.50292871766358        0.08934180898999
C           -7.05384325242629        1.18805794981174        0.02484834452336
C           -7.09325745811406        2.53246470141773       -0.30471194627249
C           -5.92296395479820        3.21073113670456       -0.59923569818883
C           -4.71470905249932        2.54226752579930       -0.55860170434041
C           -4.67191115684368        1.19955520226037       -0.19568771618681
N           -1.14077340458517        0.57360224150324       -0.11452713870691
C           -0.00360361121810        1.08881854589125        0.37173974485759
N            1.13052961633409        0.56336039012251       -0.11170617280731
C            3.53222866297181       -0.84423468179542       -0.71344030040088
C            2.53413656271543       -1.38822196004948       -1.51125344523784
C            2.68027720038386       -2.66347547165794       -2.02622254296461
C            3.83012631346661       -3.38689754819393       -1.76952894545819
C            4.82866104797708       -2.84017000621264       -0.98081644567224
C            4.69621504316139       -1.57315484664777       -0.43413007648818
H            6.94943825183120       -2.70051150273086        0.79193851568979
H            7.76810591804753       -1.19533043415687        1.14807630232330
H            7.49969542472099       -1.66801993029726       -0.53847432100310
H            4.21693426837019       -0.50523570538361        2.00828424076414
H            5.06434858466645       -2.03184534626430        2.24403786708073
H            5.87739751355206       -0.50274255934884        2.60898925522535
H            7.97617754161389        0.71147920945085        0.17759319025081
H            8.00041008306955        3.06506531854024       -0.46123549715751
H            5.88609984867290        4.23343333408409       -0.99134632755098
H            3.74957898310702        3.00811900135588       -0.86713033602540
H            3.36376671025742        2.39801730070069        1.60311384216532
H            1.29068489191647        3.40050313288075        2.51368994892748
H           -1.28219913974173        3.40134032434497        2.52163927662973
H           -3.36152190729926        2.41266634465062        1.61230013062750
H           -1.67265341994912       -0.70605076119531       -1.80034912576909
H           -1.91680683169214       -2.94523278067359       -2.80785331555509
H           -3.94744080484628       -4.28276655483314       -2.34618175464221
H           -5.69076666061514       -3.39638225958573       -0.89259623921454
H           -5.00323607484619       -2.08937277488982        2.17730838097707
H           -4.17562624104852       -0.54758871467167        1.97285593673658
H           -5.82559587170156       -0.58061719790653        2.60086162720959
H           -7.48951071367916       -1.67066251823816       -0.55160959494112
H           -7.73322464302549       -1.25275244716489        1.15306209556282
H           -6.90422135968105       -2.73673125589323        0.73671822729559
H           -7.97967339283137        0.67936782929090        0.23735809566923
H           -8.04104630566582        3.04833939859892       -0.33933893911565
H           -5.94962888501189        4.25448352660767       -0.87470330039965
H           -3.79702901441997        3.05213710612823       -0.81514351003160
H            1.64606282858400       -0.81320162320468       -1.70464288908200
H            1.89670718584422       -3.08271766791557       -2.63962830028348
H            3.95413540821942       -4.37879833527656       -2.17863845212545
H            5.71494038702427       -3.42322628775079       -0.79114547178106
