88
 energy: -135.637338918918 gnorm: 0.000154815045 xtb: 6.7.1 (edcfbbe)
O            6.71951484820337        3.74278761711515        1.15394608369785
C            6.52561950679233        2.60590609511049        0.76888636841499
C            7.65299374062672        1.69495671980953        0.44086877840257
C            7.59856411241022        0.32971655118201        0.71299898584909
C            8.68438323489119       -0.47683411669930        0.42522397620246
C            9.82655980521536        0.06663699878678       -0.14073424217968
C            9.89169331385470        1.42601861116036       -0.40196900190077
C            8.81496647473809        2.23844195201276       -0.10234638532624
C            5.15470884215161        2.06619780326346        0.60637046951784
C            4.13433574186131        2.58457150168700        1.40408762015539
C            2.84063261674111        2.12752532631510        1.28088412450692
C            2.53200150045039        1.15492319091378        0.32893821302253
N            1.22408704164938        0.69284865209748        0.19053897799803
C            0.08619328778178        1.47911692239063        0.12538587160469
C           -0.04610289828056        2.86048507788856        0.11948769766324
C           -1.31445933101329        3.39393344782797        0.02349452252939
C           -2.45151787233508        2.58086535208452       -0.09486849593411
N           -3.72183267655568        3.16750681309257       -0.17991023302394
C           -4.81106372492483        2.56133204381980        0.45345568767781
C           -4.64800317647445        1.91284857303053        1.67801895685622
C           -5.72471772130022        1.30703241816458        2.29500797638467
C           -6.98080392781239        1.34344244126461        1.71208005686668
C           -7.14996982400295        1.98983717769806        0.49866675448987
C           -6.07743986670238        2.59010325878702       -0.13127331561373
C           -3.89747772988862        4.34593808505158       -0.91222440316318
C           -3.18432647215593        4.55863942671787       -2.09211777055051
C           -3.35448562843639        5.72758553116276       -2.80774511041096
C           -4.23977766282354        6.69790863241416       -2.36785798875074
C           -4.95289908213703        6.49072777303291       -1.19828673069769
C           -4.78342076268936        5.32903824489803       -0.47099711535103
C           -2.31499049678096        1.19808760533520       -0.13262833226892
C           -1.04840455606742        0.64948605688794       -0.01750643378007
C           -0.56750795240132       -0.70396729094258       -0.02973089907422
C           -1.20789602077480       -1.92875958646899       -0.12327664294466
C           -0.44513786003135       -3.08887821698521       -0.05904146797981
N           -1.06044829973868       -4.34643224394228       -0.13721001217588
C           -2.30106901484254       -4.55268851905640        0.47474477899477
C           -2.60248848248255       -3.93617178459447        1.68943900426488
C           -3.83272298532083       -4.13375154601012        2.28489123404037
C           -4.77810318861370       -4.95290457431435        1.68973051465531
C           -4.48269217246081       -5.57159421468739        0.48608283905399
C           -3.25887355613534       -5.37244534246412       -0.12242007453309
C           -0.43841521569054       -5.38183608459703       -0.84040700778230
C            0.28716646335334       -5.11281652808441       -2.00135391647523
C            0.90805846162134       -6.13741021456356       -2.68834564494077
C            0.81196941796813       -7.44412414904055       -2.23876906709496
C            0.09034852542654       -7.71777096344744       -1.08822233005641
C           -0.52699360925531       -6.69914977325252       -0.38937002494839
C            0.94538969878090       -3.00511887981179        0.10565790003722
C            1.59663403840132       -1.79174969639624        0.18154745986499
C            0.83770549348793       -0.63295819635784        0.09658279897187
C            3.54394512562749        0.65444359959485       -0.49141319155298
C            4.84108533059949        1.10040724619247       -0.34972958350913
H            6.71679244897261       -0.09314675433204        1.17239862251205
H            8.64087430955874       -1.53372732036240        0.64413493274625
H           10.66922998238425       -0.56888459075465       -0.37000062848515
H           10.78531453894985        1.85176354102616       -0.83367466062239
H            8.85108886225833        3.30137619497572       -0.28948870509744
H            4.38477113058703        3.33988503614565        2.13394807545465
H            2.06381296862927        2.50396712101034        1.92875323502572
H            0.81310557654722        3.50980320682663        0.18520631989204
H           -1.44207763240128        4.46596475601604        0.03733035826674
H           -3.67244420231256        1.89039491149959        2.14123760017751
H           -5.58289334756910        0.80961162810475        3.24334344867785
H           -7.82072880392111        0.87175058674319        2.19904602154821
H           -8.12416413360423        2.01931362660992        0.03287228698278
H           -6.21161636722328        3.08233280307065       -1.08341562500388
H           -2.50045533605758        3.79939382784444       -2.44266134199578
H           -2.79738564734415        5.87782629505221       -3.72096005847374
H           -4.37277544825499        7.60869388395985       -2.93167188145294
H           -5.64083692843629        7.24438018747271       -0.84394755741267
H           -5.33294509992298        5.17487068022897        0.44615501949973
H           -3.18103183293784        0.56487310813326       -0.25007823922822
H           -2.28015412467411       -1.98239208455912       -0.23291280594893
H           -1.86447466425063       -3.30421315696566        2.16149819366432
H           -4.05162094486434       -3.65028559012121        3.22572915810632
H           -5.73740050921675       -5.10747154547968        2.15977560885441
H           -5.21503441691071       -6.20788533200293        0.01103899324982
H           -3.03716911213996       -5.84694700585918       -1.06720171633055
H            0.35506192057840       -4.09622282987433       -2.36041901869797
H            1.46401169610477       -5.91448572718445       -3.58739138508390
H            1.29539539821693       -8.24281328961770       -2.78054377793098
H            0.01448899977784       -8.73271841439642       -0.72633378874243
H           -1.07986111655383       -6.91478119069252        0.51324856675094
H            1.51410496058837       -3.91992157016223        0.18122511123573
H            2.66503375230177       -1.75597783841250        0.32932348624028
H            3.29793380048088       -0.06818985048768       -1.25480293854443
H            5.61018859366157        0.72365846558034       -1.00781313622404
