88
 energy: -135.560042504284 gnorm: 0.000140360013 xtb: 6.7.1 (edcfbbe)
O            6.70926402497207        3.49336830777410        1.60827158909403
C            6.51121168687428        2.42443388646427        0.96447007286967
C            7.66445085659813        1.69882005687346        0.41256445440392
C            7.70537171338440        0.30248808673045        0.35017844578046
C            8.82367741672190       -0.33776644448779       -0.14481317365787
C            9.92245076114915        0.39229102432225       -0.57340609378402
C            9.90350297195885        1.77612587801644       -0.47950759359764
C            8.79336659122333        2.42542303568887        0.01782627902407
C            5.17895754662987        1.92706194095733        0.75549936678606
C            4.13231120384431        2.45929385978680        1.54894651298921
C            2.84043289219468        2.03982644056743        1.39344496346592
C            2.51911756063806        1.08576849247247        0.41691338186587
N            1.20023700073842        0.64176592314850        0.25765669949620
C            0.08559437095779        1.43934538918062        0.15998586868947
C           -0.02318472329160        2.82513311356318        0.15534784252692
C           -1.27708563140004        3.38255823839971        0.03743461443342
C           -2.43005788269846        2.58581585539634       -0.08908642264321
N           -3.68515725604674        3.18915376409344       -0.19058960822721
C           -4.80288322209014        2.57881267086040        0.38708207863997
C           -4.69150605191279        1.90346733791560        1.60338868783622
C           -5.79742611453624        1.29715738770997        2.16548422270662
C           -7.02925622174829        1.35882319901745        1.53385962155220
C           -7.14665566400669        2.03283501865330        0.32897337527358
C           -6.04537384508827        2.63632291805531       -0.24568220499102
C           -3.83173242157860        4.39900484971751       -0.87866828489340
C           -3.09898384506619        4.64455275979180       -2.04023958775362
C           -3.24600113542486        5.84144467576320       -2.71335421197044
C           -4.12526829874550        6.80550319957311       -2.24714621866449
C           -4.85767283424812        6.56473808352176       -1.09577072941397
C           -4.71338171338545        5.37391838276867       -0.41134830085079
C           -2.32056050220562        1.19687122979568       -0.11999613756104
C           -1.06732177286806        0.62410883552954        0.00181112911513
C           -0.60422750239917       -0.73259663464287        0.00263963744258
C           -1.24558399466967       -1.95395079765170       -0.10575119249093
C           -0.48689793893776       -3.11949476225543       -0.02118906351164
N           -1.10648276639789       -4.36743448295807       -0.11735705933583
C           -2.38511581115795       -4.55819245472137        0.41600229042124
C           -2.75741197779552       -3.92925236909267        1.60492221921190
C           -4.02392136998439       -4.11562242239728        2.12255321751985
C           -4.93467359565912       -4.93362860959580        1.47332891191232
C           -4.56822285538980       -5.56504560830332        0.29569072203929
C           -3.30668499244604       -5.37943027361245       -0.23476682592758
C           -0.45103923428651       -5.42782945228979       -0.75264404700897
C            0.33258513447203       -5.19725991142315       -1.88384249061600
C            0.98130094174899       -6.24641273635439       -2.50469634737372
C            0.85602317607417       -7.53689575457511       -2.01595617879786
C            0.07617680269291       -7.77144622043474       -0.89485849263503
C           -0.57170379243973       -6.72846573441703       -0.26259681171517
C            0.90425442467194       -3.04502339855668        0.17758544491519
C            1.55635797393813       -1.83591309146480        0.27237990686991
C            0.80477895031411       -0.67140492627691        0.16958975011407
C            3.53379413169609        0.59167641447597       -0.41442400263820
C            4.82990617859635        1.00818934273968       -0.25940423128805
H            6.87459364725900       -0.27851262285390        0.72309374547458
H            8.84445623320293       -1.41796568488211       -0.18657453195112
H           10.79290095541376       -0.11555944691030       -0.96213957057952
H           10.76308532902391        2.35034949389244       -0.79491516917199
H            8.77091088396597        3.50156369311063        0.10000340438233
H            4.39410748530208        3.18639433522335        2.30225863460725
H            2.06192638061301        2.41304245488032        2.04327340477930
H            0.84921974456136        3.45292526971508        0.24325758339670
H           -1.38646426454002        4.45616445234652        0.05135188622859
H           -3.73546837061809        1.86645472149259        2.10436902566257
H           -5.69848442801317        0.78053214120471        3.10859352916713
H           -7.89176499401645        0.88602130347858        1.97792424100789
H           -8.10179739341051        2.08205898038125       -0.17242579798892
H           -6.13655957905138        3.14983355692516       -1.19150037803927
H           -2.42243584720262        3.88859438676045       -2.41071362268120
H           -2.67561674880995        6.01921224974971       -3.61279947327096
H           -4.23876115463795        7.73854042100544       -2.77735332833740
H           -5.54043039609690        7.31341733399669       -0.72249354040297
H           -5.27535399290043        5.19227081848177        0.49302638227921
H           -3.19815944381329        0.58170616956196       -0.24908814746455
H           -2.31317403375702       -2.00512282822877       -0.25661260395186
H           -2.04414130256791       -3.30271359371647        2.11982484958820
H           -4.29864938600938       -3.62550968242240        3.04475496276975
H           -5.92260046388819       -5.07881040589946        1.88268873225633
H           -5.27315138679316       -6.20068113190582       -0.21925452527458
H           -3.02765008403330       -5.86207885755426       -1.15985965415775
H            0.42079168644821       -4.19341935252540       -2.27234990324224
H            1.58250443739972       -6.05606475299999       -3.38125289337989
H            1.36294305631449       -8.35432473902658       -2.50526327058644
H           -0.02157671420867       -8.77330357100233       -0.50400611108714
H           -1.16885405188268       -6.91076369376104        0.61879978036308
H            1.46376524841274       -3.96297002406393        0.27424723339543
H            2.61984258728623       -1.79715008793027        0.44843553704428
H            3.27410905240452       -0.09263315648765       -1.21003535957876
H            5.58382286098991        0.65978132594558       -0.94850999765185
