89
 energy: -139.622408428802 gnorm: 0.000060656987 xtb: 6.7.1 (edcfbbe)
C            9.74104019354661        2.42810352635276       -2.14811699197595
C            9.28927857255807        1.18074903239603       -2.22560749376170
C            8.68014951144996        0.40174931765680       -1.15495857129508
C            8.46876584987431        0.90423214332112        0.13100045458015
C            7.88111895601796        0.12721293032078        1.10838076909146
C            7.48885815994305       -1.17898582943687        0.83672956831511
C            6.85551937816947       -2.03019389613118        1.91067676389760
O            5.88746868065390       -2.94498118428331        1.42650968288333
C            4.72555267601281       -2.47107049328969        0.91359057730904
C            3.80603583819702       -3.46530188883462        0.51980278086845
C            2.58221267555010       -3.14259703446743       -0.02228519346921
C            2.27088795212429       -1.79572982545566       -0.18293814004053
C            3.17787646039633       -0.78551598178726        0.23537636683366
C            4.40917648697652       -1.12215253989825        0.77938656498009
C            2.53619949950461        0.46969864384093       -0.02768320892839
C            2.91490484683966        1.79440214349291        0.14369760761152
C            2.04091415124728        2.79069111495381       -0.25772129949884
C            0.81230355102896        2.48166478998093       -0.83350288329556
C            0.41441364809332        1.16625941908522       -1.01435231736533
C            1.27158593127536        0.16411802094607       -0.59209686348182
N            1.13276926299236       -1.20985476472049       -0.67955200820764
C            0.02146940846628       -1.90075427458400       -1.17625110780832
C            0.18208656761857       -2.87178333267240       -2.14051904971674
C           -0.91099221964269       -3.58365021182224       -2.63823952323312
C           -2.19271996183290       -3.30081390898658       -2.15749422539097
C           -2.39027134890057       -2.33462426219094       -1.19821930877572
N           -3.67717741838185       -2.05523290853536       -0.71997439244909
C           -4.54200119605322       -2.97014311063145       -0.14705791599662
C           -4.38260423342181       -4.33424008926908        0.03383213851182
C           -5.41214768497670       -5.02877591079673        0.65209949001451
C           -6.56480321889949       -4.37795368912799        1.08313841117438
C           -6.71936093671872       -3.01033731885285        0.92501903415810
C           -5.70122527546833       -2.29332963678357        0.31074808741975
C           -5.50931136787170       -0.90379295715413        0.00219250236213
C           -6.26100724378965        0.23656204620090        0.21114193403722
C           -5.76521741230207        1.46664389382744       -0.23845234250621
O           -6.54312946765964        2.53796595087123        0.04935772861101
C           -6.10501699877521        3.83929887447051       -0.29345650791263
C           -4.81210731412049        4.26404270383759        0.36340613982827
C           -4.36248763532957        3.66102687883114        1.53097815562130
C           -3.16473505891580        4.04117017327766        2.10326200043779
C           -2.39077657399833        5.05381472280497        1.53760890463109
C           -1.11371538959894        5.47663231426963        2.10408031442271
C           -0.35311145207310        4.76041533136616        2.92269703271336
C           -2.87096605484547        5.68267495052415        0.38715224232257
C           -4.05544749423279        5.28543575093450       -0.19987414663695
C           -4.55205906912902        1.53321658725854       -0.94027169519980
C           -3.78904812218508        0.40088092959613       -1.14451651209469
C           -4.24576492354263       -0.81044350117314       -0.64382443963526
C           -1.28127327049230       -1.60549070205113       -0.64528127699931
C           -1.44785173087941       -0.77192367615198        0.44068264482480
N           -1.59456694417860       -0.07394964892558        1.36073527018999
C            7.70267147795219       -1.69242098349656       -0.43622488366920
C            8.28368942147289       -0.91232270996903       -1.41551852204798
H            9.69823883070064        3.01132716882297       -1.24428812275336
H           10.17816622362906        2.91681241751241       -3.00233236229446
H            9.36859107586116        0.65560359594885       -3.17033374766449
H            8.76182947930731        1.91457493302294        0.36979221794288
H            7.72246457671524        0.53768062466411        2.09620426605062
H            6.41938539756493       -1.39670140553070        2.69410987925695
H            7.61681401577383       -2.67161921051719        2.37001211143802
H            4.09039819302313       -4.49514078645672        0.66510450661623
H            1.88395653136045       -3.91520416402610       -0.30386099403222
H            5.09305449170207       -0.34506235886669        1.07541584900970
H            3.87335463751384        2.03859906687757        0.57571668499868
H            2.31629676993876        3.82663823983269       -0.12882004296698
H            0.15594993870858        3.27850294781200       -1.14804562271871
H           -0.53496319688596        0.93611440103943       -1.47119356983709
H            1.16967259303205       -3.05593795193256       -2.53778653714573
H           -0.77155296238627       -4.32503522979074       -3.40695283477163
H           -3.04839996430503       -3.81846715981452       -2.56570427477272
H           -3.48447617201734       -4.83912770800662       -0.28762029491723
H           -5.31418838845794       -6.09304504536984        0.80375219075241
H           -7.34760766791926       -4.95111161376901        1.55723451241992
H           -7.60913790953322       -2.50889121591926        1.27297006482831
H           -7.21085940034670        0.20909268490828        0.72025792289656
H           -6.92218606368313        4.48790470398466        0.04354423946779
H           -6.02101294090323        3.93549864175331       -1.38472252697636
H           -4.94864608423023        2.87883876529747        1.99143433223941
H           -2.83484101476336        3.55107529091435        3.00582462361143
H           -0.77530860184913        6.45524075431112        1.78420704591734
H            0.58544337165626        5.13803333203765        3.29203348308772
H           -0.62123361786258        3.76603432825899        3.23776814256728
H           -2.29442784086647        6.47907220485124       -0.06224520019438
H           -4.39951262232992        5.77068878747079       -1.10265120744742
H           -4.18957103307505        2.47607698819859       -1.31385938821087
H           -2.85821795925697        0.46398291587135       -1.68545394923046
H            7.40241053520018       -2.70697998124781       -0.65633553808033
H            8.43791033715271       -1.32661059839562       -2.40201301441099
