89
 energy: -139.715852564205 gnorm: 0.000090923367 xtb: 6.7.1 (edcfbbe)
C            9.62239995220258        1.18769190820116       -3.25239530753342
C            9.32822327153594        1.50635379085679       -1.99708971739632
C            8.69440657333712        0.64953881931881       -1.00144806952840
C            8.45047124170302        1.16407112544133        0.27401725240762
C            7.85021621315457        0.39678137461234        1.25223075704285
C            7.47788800725150       -0.91553440291205        0.98721763823098
C            6.83783932438821       -1.76299232004128        2.06012917739844
O            5.93519326216656       -2.73683869977335        1.57341780938233
C            4.75176308265427       -2.31910506313696        1.02819855748309
C            3.87478426344761       -3.35241703550038        0.66373531172179
C            2.64261213020722       -3.09599090764932        0.10175188403083
C            2.28669506441712       -1.77163374531015       -0.10990765914027
C            3.15054672191264       -0.72568368454092        0.27061672817160
C            4.38995018094918       -0.99536818642956        0.83921434702576
C            2.47336882006149        0.50266961931422       -0.04055414874044
C            2.82653355050603        1.84115779360128        0.07360998792953
C            1.93368128967597        2.80085181778411       -0.35983297984139
C            0.71141410976202        2.43941466611649       -0.92102980361698
C            0.34212954483641        1.11416145866056       -1.04863587492814
C            1.21851396971482        0.14602246263449       -0.58324201858305
N            1.11349357514045       -1.23405128983468       -0.62199826919528
C            0.02586824135137       -1.96934831517290       -1.09029783362454
C            0.21704653718438       -2.99421129569225       -2.01220303417638
C           -0.86050740911507       -3.73074843170570       -2.47123378694817
C           -2.14648126055200       -3.44583875058614       -2.04485542900040
C           -2.36840640878405       -2.42659090523145       -1.12580777318733
N           -3.65948261351668       -2.13271833425641       -0.68912316685826
C           -4.55368517027171       -3.02591899627293       -0.12259941154072
C           -4.42708198573061       -4.39126469707621        0.08491094887192
C           -5.47621442200226       -5.05079567195494        0.69848894369740
C           -6.62227191969459       -4.37264011805847        1.10649170694519
C           -6.74221075609749       -3.00857849459902        0.92475389610126
C           -5.70218487626222       -2.32445151271190        0.30941928415674
C           -5.48782169582452       -0.93993857772033       -0.01599693652493
C           -6.24307430884338        0.20714611510948        0.15952114760773
C           -5.73988069518261        1.42140329537050       -0.29734564692707
O           -6.52402298639103        2.51355610689047       -0.04071138736761
C           -6.06287225488010        3.79686352592311       -0.41130254381281
C           -4.77939583541747        4.22968700500025        0.25760231366820
C           -4.35117548748848        3.64899633544987        1.44448264483347
C           -3.15988582364212        4.03298433285967        2.02754118648598
C           -2.36956434066759        5.02808720314270        1.45319332043970
C           -1.09728967802228        5.45497882867429        2.02673791606499
C           -0.36866820011434        4.77428144245988        2.90289640592828
C           -2.82843766368159        5.63579076607204        0.28263310899811
C           -4.00657513562845        5.23429865414672       -0.31397379699200
C           -4.51909979425331        1.46854408938644       -0.97579725046472
C           -3.75641727457978        0.32898155053691       -1.15156148912824
C           -4.22148364636466       -0.86592686484142       -0.63466300388833
C           -1.27336420240736       -1.69739696053309       -0.62256450255008
C           -1.46288616796176       -0.78782260349698        0.43898097172855
N           -1.60356332843590       -0.10904361885468        1.35446019633868
C            7.72309921452387       -1.43939965379597       -0.27612958393946
C            8.31695113781980       -0.66988205285780       -1.25615208150366
H            9.40931962186641        0.22109176044861       -3.67583222241914
H           10.09471892149246        1.89605653809255       -3.91179198433392
H            9.57195174133217        2.50040876521633       -1.64061039250389
H            8.73434459235887        2.18305306507769        0.49739616096780
H            7.66750164616818        0.81803483879024        2.23132752517321
H            6.34452431766080       -1.12570005545550        2.80694637938859
H            7.61121982042314       -2.35080477956993        2.56942731529337
H            4.19381196789054       -4.36703405930742        0.84433564767193
H            1.97944607317742       -3.90881310915326       -0.15049550862209
H            5.03868547502714       -0.18015991927202        1.11249598933527
H            3.78403658274514        2.11923055992469        0.48736004626668
H            2.18513742602312        3.84728430232274       -0.27433455329964
H            0.03887652843594        3.20876023347488       -1.26953527412256
H           -0.60040111227937        0.85103259940898       -1.50347241210401
H            1.21313759447049       -3.19271878724860       -2.37532198599117
H           -0.69975199859959       -4.51931990570294       -3.18997784261030
H           -2.98931001919696       -3.99569035864723       -2.43286584813921
H           -3.53702130353886       -4.92513794041383       -0.21146539584694
H           -5.40323800144610       -6.11520626908704        0.86637196648348
H           -7.42185159670792       -4.92340900832352        1.57913350225374
H           -7.62293902523999       -2.47870043176817        1.25412104172482
H           -7.20516546133778        0.18428853534950        0.64589480869714
H           -6.87845037870229        4.46505803608192       -0.10929457221627
H           -5.95774014654971        3.86399856820040       -1.50394280930615
H           -4.95183751445621        2.88052877938370        1.90940869331275
H           -2.84781823574646        3.55953036366393        2.94524499211312
H           -0.73202363818076        6.40755220027253        1.66090229924211
H            0.56829050101332        5.15693764972480        3.27102799516526
H           -0.66305391338778        3.80673472013652        3.27255515952677
H           -2.23994446815812        6.41914369526988       -0.17452078058461
H           -4.33381147826672        5.70294267656247       -1.23194244283303
H           -4.14367905027906        2.40193332908781       -1.36180667715920
H           -2.82089792201209        0.38826038689190       -1.68638880829284
H            7.43629148753542       -2.45977445825659       -0.48740927215752
H            8.49170763673047       -1.10335283124850       -2.22843597168294
