89
 energy: -139.711841958940 gnorm: 0.000040890349 xtb: 6.7.1 (edcfbbe)
C           14.25416155354785        2.14610011168015        0.06094198030551
C           13.18370024271671        2.07583742448661       -0.72185892739502
C           11.79632254376702        1.93261041618499       -0.29423223872828
C           11.39811757638689        2.00703520967211        1.04098814974935
C           10.07192363402433        1.85369615476569        1.39568773447381
C            9.10040877745554        1.63044093488786        0.42879752268047
C            7.65106310940093        1.46535543353602        0.80203662965758
O            7.17458341619714        0.27637533825332        0.19532001941294
C            5.86373517490594       -0.07445357047519        0.35047264481570
C            4.93093375130607        0.65397515270284        1.09416686221311
C            3.61625872902387        0.23261916119909        1.20617388873887
C            3.24241784615810       -0.93810407694144        0.57186142552750
C            4.17136425869799       -1.67385909864833       -0.19741838948221
C            5.48182827660587       -1.24237697431911       -0.30451921046139
C            3.45629108344987       -2.79806816504187       -0.73870078840051
C            3.83187689497147       -3.87445028804694       -1.53135195329210
C            2.88308192875111       -4.82776208714078       -1.84462466920115
C            1.58037522523125       -4.72735399388571       -1.36220597565801
C            1.18337564865954       -3.66503710082017       -0.57207582192649
C            2.12348662644830       -2.68737479698076       -0.28364370567470
N            2.00192560135331       -1.55477146119131        0.50271070508466
C            0.84171132955287       -1.11438785007372        1.14057167370908
C            0.83921785962994       -0.89500391323292        2.51400377955531
C           -0.32102488530834       -0.49912871659729        3.15588198472050
C           -1.48986795129703       -0.30023490352625        2.44171526750018
C           -1.50748314859346       -0.47920362941020        1.06311197108647
N           -2.67936301272950       -0.24794428395557        0.34054074790232
C           -2.82510935605125        0.61250802245201       -0.73231225395066
C           -1.90995602341965        1.49571437239292       -1.28494434812623
C           -2.33142058949757        2.28331989663456       -2.33933841545428
C           -3.63496928326960        2.21074033532520       -2.82559051413360
C           -4.55860896567677        1.35563424424164       -2.25820972309448
C           -4.15748282057198        0.55125518842973       -1.19924814593246
C           -4.84052381680095       -0.40142895617379       -0.36838279702520
C           -6.14209252368084       -0.88973125077320       -0.36960770296517
C           -6.48922465662430       -1.83717632091645        0.57964422157517
O           -7.72692694264572       -2.41023916160089        0.69565210584661
C           -8.70630945759332       -2.10960677039078       -0.27921551461123
C           -9.23088625457435       -0.69539426107781       -0.22094341114966
C           -9.30673348364616       -0.01856435321113        0.99009574671285
C           -9.79778473908609        1.27015471198527        1.04855456290431
C          -10.23759031937330        1.92282752407725       -0.10411949051899
C          -10.77053801893620        3.28056804202193       -0.09869161522782
C          -11.02492067386902        4.03122055222210        0.96689258791172
C          -10.15815874387966        1.23329102944912       -1.31623770681415
C           -9.66287634312772       -0.05400169311004       -1.37553925796272
C           -5.54226152846905       -2.28994351867230        1.51150216114725
C           -4.24814766367702       -1.81564429373997        1.52001465953154
C           -3.90122479692488       -0.85912041653521        0.57694448274935
C           -0.33644541947084       -0.89518612033568        0.40269096194116
C           -0.34518979294906       -1.09119236675540       -0.99476051953162
N           -0.35332715847729       -1.24774407420099       -2.13203077452549
C            9.48532555305098        1.56221823310952       -0.90496151338947
C           10.81099600807700        1.70944700431085       -1.25895362454267
H           14.19623852120282        2.10154443989801        1.13505209127336
H           15.24304481836519        2.24696175952210       -0.35331272612368
H           13.31881484356592        2.11256811935727       -1.79646572170114
H           12.13037985320388        2.18813988944612        1.81231750157277
H            9.78756334928997        1.91078213774131        2.43703715494084
H            7.07387680881773        2.32921402746514        0.43600508919953
H            7.54370136004987        1.40679797315699        1.89359203762062
H            5.22165277796017        1.56448254559983        1.59309826761953
H            2.90872811945561        0.81741553826839        1.77427159643116
H            6.21224412794712       -1.78327032608784       -0.88431631029133
H            4.84732779874591       -3.96211101247848       -1.88643773102010
H            3.15321216056172       -5.67104503081962       -2.46254648880513
H            0.86373987893017       -5.49732108198277       -1.60670983891269
H            0.17281795094622       -3.60788418857927       -0.19514243479011
H            1.74709132505304       -1.06438802622943        3.07157890425732
H           -0.31466547767950       -0.34539628485784        4.22382220493118
H           -2.39355561536963        0.01605389527234        2.93887844939960
H           -0.90032218715570        1.57257477980196       -0.90886611834184
H           -1.63465212905046        2.97295965438028       -2.79232967225317
H           -3.92497367955170        2.84258815144248       -3.65184519642522
H           -5.57476051643776        1.31480784707884       -2.62046668701607
H           -6.84853764486042       -0.52133516472128       -1.09443695512577
H           -9.52202733164084       -2.80903035008057       -0.05879071679051
H           -8.32460624391120       -2.33436205512404       -1.28468399782173
H           -8.96827802167401       -0.51160519679151        1.89035741597607
H           -9.83583821682604        1.77386126448852        2.00180103327301
H          -10.97946872371372        3.68315599421044       -1.08301034608336
H          -11.42494411173495        5.02595423975659        0.86634269516070
H          -10.85338533556374        3.69273489537943        1.97440986688517
H          -10.48952386451933        1.71730232999828       -2.22434405935863
H           -9.60844475615332       -0.56724005400818       -2.32584819522928
H           -5.85817607638767       -3.03454307981643        2.22541017346386
H           -3.53213840783218       -2.19068597088926        2.23515919160654
H            8.73623198855082        1.38290024948134       -1.66211400170678
H           11.09359737836491        1.64896306465185       -2.30072594403494
