  86
       -122.91950248
 C          2.3188167030       -2.7497119942       -2.1389665096
 C          1.1282530341       -3.6117156964       -2.5430367577
 C          0.1152701181       -3.8006085930       -1.4131242401
 C          0.6366725679       -4.6982286012       -0.2907513312
 C         -0.3684228481       -4.8706217970        0.8591396773
 C         -0.3521086907       -6.2973089482        1.4228710679
 C         -1.0477596256       -7.2964631740        0.5060403251
 C         -0.0814689146       -3.8804584164        2.0073991515
 N         -0.0618327547       -2.5147201826        1.5754430328
 C          1.0579541013       -1.7703515024        1.2960353245
 C          2.3937288657       -2.0730477726        1.4736718190
 C          3.3472346379       -1.1289286593        1.0779898531
 C          2.9538764482        0.0989125999        0.5350728600
 N          3.9263833771        1.0168740794        0.1459712773
 C          3.9312047506        2.3644237132        0.4551329702
 C          3.0514728479        3.0912386332        1.2410832744
 C          3.3102611901        4.4423107129        1.4228909157
 C          4.4237648163        5.0483266621        0.8499593239
 C          5.3234565949        4.3215164558        0.0904939677
 C          5.0832301412        2.9669395707       -0.1079408185
 C          5.7950470623        1.9279833941       -0.7937568752
 C          6.9630400231        1.9045527564       -1.5471291158
 C          7.3612576374        0.7062775390       -2.1126211900
 C          6.6056157525       -0.4510384057       -1.9537004074
 C          5.4365938083       -0.4519951905       -1.2061400888
 C          5.0495817622        0.7372816996       -0.6099805922
 C          1.6046323536        0.4263723354        0.3722148630
 C          0.6426748230       -0.5151590201        0.7527419794
 C         -0.7742172292       -0.5282929862        0.7245165754
 C         -1.7421087663        0.3956061413        0.3171479850
 C         -3.0886321312        0.0373831422        0.4306366564
 N         -4.0666445173        0.9430572631        0.0235031356
 C         -4.1096952662        2.2839774630        0.3565409727
 C         -3.2729528721        3.0131430900        1.1860986312
 C         -3.5643234405        4.3555714602        1.3815480789
 C         -4.6683525277        4.9508325981        0.7794917215
 C         -5.5253984638        4.2211245575       -0.0247367488
 C         -5.2517886736        2.8751464393       -0.2377165040
 C         -5.9173379220        1.8357125786       -0.9679069872
 C         -7.0552748661        1.8045733164       -1.7655775070
 C         -7.4081006063        0.6101607027       -2.3681157079
 C         -6.6372218868       -0.5359539930       -2.2008063325
 C         -5.4974729433       -0.5287775476       -1.4095577327
 C         -5.1555277674        0.6563491644       -0.7781330501
 C         -3.4752266301       -1.2066377232        0.9402460542
 C         -2.5162644057       -2.1345395582        1.3618488776
 C         -1.1840480688       -1.7924699327        1.2468355735
 H          2.9647558132       -2.5724431208       -2.9962409117
 H          2.9086767496       -3.2337836904       -1.3646557433
 H          1.9799876299       -1.7882793759       -1.7587739926
 H          0.6217136914       -3.1343175949       -3.3849092851
 H          1.4819007905       -4.5886613362       -2.8819853714
 H         -0.1561793198       -2.8199666850       -1.0210237301
 H         -0.7915161184       -4.2518066673       -1.8251119505
 H          0.8695877105       -5.6749966611       -0.7188564630
 H          1.5672586037       -4.2889620161        0.1021990294
 H         -1.3738267749       -4.6616827039        0.4790720216
 H          0.6822150518       -6.6067020466        1.5885637976
 H         -0.8569259413       -6.3059732325        2.3920916663
 H         -0.5805592979       -7.3234488304       -0.4749134032
 H         -2.0937503276       -7.0275299671        0.3771861387
 H         -1.0009763512       -8.2954348687        0.9326771528
 H          0.8848715443       -4.1182834883        2.4575817315
 H         -0.8531064177       -3.9901453249        2.7773147232
 H          2.7192370755       -2.9970581880        1.9268811988
 H          4.3945848720       -1.3259918184        1.2382166626
 H          2.1995263929        2.6235182083        1.7098564626
 H          2.6361541894        5.0315968868        2.0260539717
 H          4.5917912737        6.1029861462        1.0117655971
 H          6.1968528136        4.7908215623       -0.3358956596
 H          7.5396335624        2.8054559406       -1.6912820844
 H          8.2676706140        0.6680712249       -2.6988466722
 H          6.9307157177       -1.3665532787       -2.4246120462
 H          4.8432270609       -1.3472718053       -1.1080890903
 H          1.3175299697        1.3541066920       -0.0950280695
 H         -1.4603137847        1.3354037092       -0.1287335819
 H         -2.4287094138        2.5532625714        1.6760037145
 H         -2.9237850562        4.9466932964        2.0185643189
 H         -4.8627203421        5.9989850803        0.9534109871
 H         -6.3929665233        4.6807331140       -0.4726080925
 H         -7.6435525263        2.6970555839       -1.9148806475
 H         -8.2905997905        0.5658959821       -2.9892721399
 H         -6.9264469562       -1.4481844155       -2.7006573281
 H         -4.8920416096       -1.4155979182       -1.3032570700
 H         -4.5233754070       -1.4292940600        1.0561159512
 H         -2.8308237632       -3.0748114505        1.7867486498
