  45
        -63.69005789
 C          2.8794986081        2.0138892807        2.4997234334
 C          2.5934946625        0.6721731332        2.6884400508
 C          1.6529208484        0.0441427160        1.8942789800
 C          0.9651985809        0.7480421537        0.9099693601
 C         -0.0002985533        0.0010843307       -0.0001181454
 C         -0.9629850505       -0.9111086439        0.7479819222
 C         -1.6528242955       -1.8923848146        0.0416946704
 C         -2.5895229878       -2.6912630240        0.6694040106
 C         -2.8692995740       -2.5106598320        2.0135458327
 C         -2.2149915837       -1.5148821658        2.7156876358
 C         -1.2747335674       -0.7162938004        2.0869693336
 C         -0.9642289972        0.9143051920       -0.7451307547
 C         -1.6494126792        1.8980148315       -0.0378745608
 C         -2.5900303704        2.6947234944       -0.6625954068
 C         -2.8780808285        2.5097615795       -2.0043229253
 C         -2.2268530394        1.5128291401       -2.7077190474
 C         -1.2826881345        0.7164826600       -2.0821764867
 C          0.9606209160       -0.7479594836       -0.9133250803
 C          1.6481976987       -0.0448200822       -1.8982175377
 C          2.5863745939       -0.6744799511       -2.6941915630
 C          2.8695997595       -2.0170588290       -2.5075463444
 C          2.2157191862       -2.7164135114       -1.5095226722
 C          1.2741526619       -2.0859713575       -0.7137862042
 C          1.2826888138        2.0847035730        0.7075761619
 C          2.2271199733        2.7135874164        1.5010575598
 H          3.6135271660        2.5066723852        3.1200834100
 H          3.1090264170        0.1105410021        3.4538142398
 H          1.4498089652       -1.0071450612        2.0379735475
 H         -1.4544308955       -2.0295374999       -1.0113341182
 H         -3.1074813157       -3.4533538595        0.1055027160
 H         -3.5999192356       -3.1348729382        2.5064288106
 H         -2.4379146036       -1.3532984349        3.7604229314
 H         -0.7821038224        0.0619701739        2.6510189885
 H         -1.4439813003        2.0393264269        1.0132393592
 H         -3.1045910855        3.4587507360       -0.0980951439
 H         -3.6133659600        3.1312525431       -2.4938939586
 H         -2.4560424704        1.3478380905       -3.7505726201
 H         -0.7915967859       -0.0619488054       -2.6472943964
 H          1.4483710971        1.0072951965       -2.0401048787
 H          3.1031630565       -0.1127526906       -3.4587494887
 H          3.6018630079       -2.5107461523       -3.1290810803
 H          2.4399057164       -3.7602014363       -1.3433699496
 H          0.7832208795       -2.6477045962        0.0669917295
 H          0.7920866774        2.6463571736       -0.0735277527
 H          2.4547843119        3.7562669234        1.3329043911
  45
        -63.68996825
 C          2.8625697554        2.0452413072        2.4954232809
 C          2.6696724610        0.6780905264        2.6056283251
 C          1.7345336623        0.0430961339        1.8111973917
 C          0.9609672375        0.7624396153        0.9036412048
 C          0.0007086046        0.0007330724       -0.0007053112
 C         -0.9570762517       -0.9042707406        0.7634093219
 C         -1.7286735842       -1.8155152925        0.0469208925
 C         -2.6614891159       -2.6106759570        0.6845749967
 C         -2.8545346506       -2.4965122230        2.0512429769
 C         -2.1163232496       -1.5715761888        2.7665195417
 C         -1.1793966498       -0.7765703198        2.1274721207
 C         -0.9591445520        0.9066686145       -0.7610736766
 C         -1.7321191914        1.8136476983       -0.0403604617
 C         -2.6678219500        2.6084657894       -0.6739247754
 C         -2.8617424252        2.4995413737       -2.0410762344
 C         -2.1215118936        1.5798462149       -2.7607280070
 C         -1.1824714623        0.7841523757       -2.1254631330
 C          0.9572994753       -0.7626325245       -0.9074101516
 C          1.7267061333       -0.0463839147       -1.8208163365
 C          2.6574406865       -0.6842730209       -2.6182151905
 C          2.8513111147       -2.0509973782       -2.5043329498
 C          2.1157969653       -2.7658246006       -1.5772062325
 C          1.1806266360       -2.1265607135       -0.7801356239
 C          1.1829844428        2.1268865340        0.7799527441
 C          2.1217104144        2.7635186927        1.5750105580
 H          3.5932087604        2.5435967903        3.1152567027
 H          3.2553604692        0.1031248681        3.3081751655
 H          1.6029907064       -1.0264492409        1.8908680974
 H         -1.5964536447       -1.8985802563       -1.0222840285
 H         -3.2439979388       -3.3180105555        0.1123751267
 H         -3.5828144863       -3.1170007097        2.5522309614
 H         -2.2708631727       -1.4616946097        3.8301252829
 H         -0.6215899999       -0.0532502037        2.7037361868
 H         -1.5992613498        1.8929254216        1.0291111969
 H         -3.2526665956        3.3108200753       -0.0979192601
 H         -3.5930628607        3.1196983781       -2.5380152201
 H         -2.2765917920        1.4736663530       -3.8248381125
 H         -0.6249591287        0.0633271980       -2.7052147872
 H          1.5950612887        1.0229082998       -1.9034034147
 H          3.2382946161       -0.1114872200       -3.3263280439
 H          3.5787476258       -2.5512510454       -3.1263313343
 H          2.2711938221       -3.8292240922       -1.4660169338
 H          0.6272505889       -2.7027261040       -0.0534304150
 H          0.6238757433        2.7057254651        0.0596497762
 H          2.2760078894        3.8275051840        1.4676716581
