  45
  -63.3765896264000        1.00000000000000      !
 C          2.8794986081        2.0138892807        2.4997234334
 C          2.5934946625        0.6721731332        2.6884400508
 C          1.6529208484        0.0441427160        1.8942789800
 C          0.9651985809        0.7480421537        0.9099693601
 C         -0.0002985533        0.0010843307       -0.0001181454
 C         -0.9629850505       -0.9111086439        0.7479819222
 C         -1.6528242955       -1.8923848146        0.0416946704
 C         -2.5895229878       -2.6912630240        0.6694040106
 C         -2.8692995740       -2.5106598320        2.0135458327
 C         -2.2149915837       -1.5148821658        2.7156876358
 C         -1.2747335674       -0.7162938004        2.0869693336
 C         -0.9642289972        0.9143051920       -0.7451307547
 C         -1.6494126792        1.8980148315       -0.0378745608
 C         -2.5900303704        2.6947234944       -0.6625954068
 C         -2.8780808285        2.5097615795       -2.0043229253
 C         -2.2268530394        1.5128291401       -2.7077190474
 C         -1.2826881345        0.7164826600       -2.0821764867
 C          0.9606209160       -0.7479594836       -0.9133250803
 C          1.6481976987       -0.0448200822       -1.8982175377
 C          2.5863745939       -0.6744799511       -2.6941915630
 C          2.8695997595       -2.0170588290       -2.5075463444
 C          2.2157191862       -2.7164135114       -1.5095226722
 C          1.2741526619       -2.0859713575       -0.7137862042
 C          1.2826888138        2.0847035730        0.7075761619
 C          2.2271199733        2.7135874164        1.5010575598
 H          3.6135271660        2.5066723852        3.1200834100
 H          3.1090264170        0.1105410021        3.4538142398
 H          1.4498089652       -1.0071450612        2.0379735475
 H         -1.4544308955       -2.0295374999       -1.0113341182
 H         -3.1074813157       -3.4533538595        0.1055027160
 H         -3.5999192356       -3.1348729382        2.5064288106
 H         -2.4379146036       -1.3532984349        3.7604229314
 H         -0.7821038224        0.0619701739        2.6510189885
 H         -1.4439813003        2.0393264269        1.0132393592
 H         -3.1045910855        3.4587507360       -0.0980951439
 H         -3.6133659600        3.1312525431       -2.4938939586
 H         -2.4560424704        1.3478380905       -3.7505726201
 H         -0.7915967859       -0.0619488054       -2.6472943964
 H          1.4483710971        1.0072951965       -2.0401048787
 H          3.1031630565       -0.1127526906       -3.4587494887
 H          3.6018630079       -2.5107461523       -3.1290810803
 H          2.4399057164       -3.7602014363       -1.3433699496
 H          0.7832208795       -2.6477045962        0.0669917295
 H          0.7920866774        2.6463571736       -0.0735277527
 H          2.4547843119        3.7562669234        1.3329043911
