113
 energy: -182.687700894414 gnorm: 0.000055600712 xtb: 6.7.1 (edcfbbe)
C           -8.79786513916695       -1.96606904753932       -4.14178849475077
C           -8.32442669317425       -0.75421247272854       -3.64414048480071
C           -7.30397747249616       -0.70461178198115       -2.71370633552915
C           -6.76604396967837       -1.90695970513317       -2.27818822802030
C           -7.22268005091283       -3.14036528953117       -2.79656234455929
C           -8.24910042419178       -3.16441277933055       -3.73149690779284
C           -6.42758531276867       -4.16422295239189       -2.17803946044804
C           -6.41522650805442       -5.54980944255561       -2.26855281941463
C           -5.51198030179060       -6.25522549597876       -1.49887235089660
C           -4.64008457160730       -5.59721030144013       -0.63445107522559
C           -4.63392481195952       -4.21961746576119       -0.52706812899359
C           -5.52115176275771       -3.50380328359225       -1.31783357813621
N           -5.73670299698437       -2.14096261972548       -1.38643896670280
C           -5.02263843181505       -1.17106842348317       -0.67253394424962
C           -3.63273212371193       -1.19284327825519       -0.68161486385922
C           -2.91175074341417       -0.24300806485864        0.03576670891328
C           -1.44749756101835       -0.24787607098668        0.01502640318263
C           -0.70553026333603       -1.40827300709241       -0.01074515735104
C            0.69608112106705       -1.41178734791042       -0.03043273290560
C            1.44398482561998       -0.25503629511985       -0.04420549620178
C            2.90834878225427       -0.25714567126199       -0.05639559322522
C            3.60240143942458        0.71208089942091       -0.77264218338281
C            4.99126499376940        0.75077829222676       -0.74371702026644
N            5.67042745126137        1.75961092689555       -1.43234887572718
C            5.35661868671677        3.10724936667394       -1.39102983780314
C            4.36449801026391        3.76568520479703       -0.67789233773697
C            4.28856606049712        5.14011613127936       -0.80179976726785
C            5.17870704492822        5.85188800772331       -1.60272348941953
C            6.18204768874158        5.20420791067941       -2.29491230635942
C            6.27804509720198        3.82291662479537       -2.18860073426233
C            7.18181707809595        2.85361234426285       -2.74250511179375
C            8.26597582054169        2.94596862224091       -3.60492442143968
C            8.91911617477598        1.78682703111107       -3.97308411274459
C            8.49125232411056        0.54631489243100       -3.50643804284205
C            7.41523220303074        0.42957570323952       -2.64712923879414
C            6.77268263335265        1.59341340078025       -2.24979640909562
C            5.69872436290794       -0.20844600203238       -0.02599791215645
C            5.00883858107950       -1.19742439995781        0.66614430427597
N            5.71245708809093       -2.17364893810599        1.38178356290017
C            6.73267857344489       -1.94774849612892        2.28593279536373
C            7.26869010517025       -0.74939521316535        2.73461446091789
C            8.27811808112279       -0.80716751617677        3.67650232294574
C            8.74286740871449       -2.02319952235268        4.17218619848059
C            8.19597304413347       -3.21767543183999        3.74832590028358
C            7.18017748132007       -3.18540070344899        2.80211304870795
C            6.38862354909909       -4.20335082878422        2.16946010873408
C            6.37053610185454       -5.58932506994617        2.25273844669465
C            5.47238826083628       -6.28761056126209        1.47069018121701
C            4.61140869958623       -5.62211271293013        0.60106752808893
C            4.61134554085876       -4.24399850572514        0.50042459565113
C            5.49321885158706       -3.53536551990073        1.30355348265474
C            3.61890547686736       -1.21400034582305        0.66197899138978
C            0.72079232337620        0.96176665897280       -0.03081257387821
N            1.21892334161510        2.20016307508196       -0.02963210177719
S            0.00740420817385        3.25261747948812       -0.00093405450721
N           -1.20951977414644        2.20629330719159        0.01939551546789
C           -0.71796605737136        0.96530038543186        0.01040993458998
C           -3.59567514416420        0.72549915247362        0.76265882094620
C           -4.98449145904505        0.77012844417076        0.74625592532164
N           -5.65227836160297        1.78007230813877        1.44438273686088
C           -6.74545260068047        1.61736252495817        2.27442700379435
C           -7.38807754551595        0.45558825390336        2.67756046671743
C           -8.45257698574431        0.57546411528002        3.55068601738658
C           -8.86909651230298        1.81701616454098        4.02481553841141
C           -8.21598260235823        2.97406626514393        3.65005631530212
C           -7.14318050239519        2.87858438126217        2.77389787828945
C           -6.24205417884604        3.84488357894012        2.21046299967103
C           -6.13913204708099        5.22569083508110        2.31670921575211
C           -5.14107938004898        5.86979506937274        1.61360269661972
C           -4.26279645233218        5.15507452453342        0.80227392347418
C           -4.34596701327010        3.78111857538126        0.67798566225437
C           -5.33296429017424        3.12631627991060        1.40146248697422
C           -5.70241351593310       -0.18331266965364        0.03137595615460
H           -9.59905495087895       -1.96224032180130       -4.86568356214473
H           -8.76214840738984        0.16835950694816       -3.99579807677176
H           -6.93217490464069        0.24174867560672       -2.35093785786032
H           -8.60377984947022       -4.10322119078899       -4.12928913749046
H           -7.10310232235633       -6.06054857054859       -2.92526720619530
H           -5.48408075552417       -7.33312785180691       -1.55625515211424
H           -3.95667533213607       -6.17688641927469       -0.03139369215596
H           -3.96950294198268       -3.72001531516271        0.16217488600206
H           -3.11932903991634       -1.92697680086657       -1.28319254030588
H           -1.21737094012383       -2.35896950614250        0.00434039112877
H            1.20315471361611       -2.36488300551433       -0.05350152696822
H            3.06164915163253        1.43083755657289       -1.36511148281929
H            3.67252254975498        3.23147272260683       -0.04565933033338
H            3.52134956410650        5.67467294687854       -0.26103004431441
H            5.08372258721308        6.92527950722303       -1.67407346522690
H            6.88210410236517        5.75503186844269       -2.90480670438900
H            8.58417903167035        3.90643873784407       -3.98128952726802
H            9.76646872894237        1.83618378004007       -4.64056044242681
H            9.00912372552362       -0.34591927488380       -3.82617565311100
H            7.08106030443047       -0.54078847723752       -2.31230106948556
H            6.77682646458096       -0.18374156084912       -0.00069648088158
H            6.90347063840410        0.20005520369940        2.37322055428879
H            8.71379732639015        0.11219746161007        4.03891722061426
H            9.53557641491022       -2.02574532783241        4.90535646045454
H            8.54380946447482       -4.15978395682152        4.14434598053555
H            7.05000848118175       -6.10578758310231        2.91370973220558
H            5.43989612576033       -7.36566603475142        1.52254891363759
H            3.93170839576870       -6.19626865321181       -0.01139173587167
H            3.95546942669596       -3.73860418380210       -0.19276936107809
H            3.09700085903015       -1.94937763492905        1.25465066934178
H           -3.04703781709745        1.43929056511882        1.35386634342445
H           -7.06232230907546       -0.51551676057222        2.33659263056926
H           -8.97016761058577       -0.31505963003608        3.87560855064143
H           -9.70754577660085        1.86881860791071        4.70326508223071
H           -8.52541879716841        3.93526180458345        4.03185072250669
H           -6.82989852588118        5.77894946934892        2.93493209617438
H           -5.04093088779166        6.94274072713727        1.68458917613180
H           -3.49935186547785        5.68692570475350        0.25356344608024
H           -3.66330612972680        3.24437916337507        0.03781941733848
H           -6.78064012990995       -0.15509075169673        0.01727608814702
