113
 energy: -182.624550939875 gnorm: 0.000073175943 xtb: 6.7.1 (edcfbbe)
C           -8.71580146853723       -2.23242861829720       -4.01524984429853
C           -8.23058449710880       -0.99376694137904       -3.60258322098001
C           -7.23134663328777       -0.88953121774790       -2.65365280256052
C           -6.72847658534442       -2.06399788950930       -2.11167804582913
C           -7.19707489502101       -3.32650736433703       -2.54330893030524
C           -8.20089731112848       -3.40547863038441       -3.49848721926852
C           -6.43445155469480       -4.31185420741646       -1.82729160950157
C           -6.44290131853437       -5.69965959828072       -1.81040418523691
C           -5.56648687174077       -6.35633780004809       -0.96847914454168
C           -4.70125948965639       -5.64641964700274       -0.13923760804170
C           -4.67487350435976       -4.26475505581220       -0.13806566375830
C           -5.53571325145738       -3.59992082210246       -0.99987204320532
N           -5.72786933512237       -2.24449694672005       -1.17764595120980
C           -5.00928548202496       -1.22682092282981       -0.53522267827881
C           -3.62423934214042       -1.26200914926905       -0.52491871459621
C           -2.89003108749183       -0.24070916533559        0.09380731583028
C           -1.44932009938624       -0.22858141505302        0.05586733571989
C           -0.68594904227789       -1.42977193881071        0.00821512902144
C            0.67634143308406       -1.43360728656487       -0.00831809282914
C            1.44652856188494       -0.23659840320551       -0.05141532322779
C            2.88714729247303       -0.25677686753338       -0.08940413045670
C            3.59373974397267        0.77614359509472       -0.71936016248039
C            4.97796813906819        0.80573478308581       -0.70156732906913
N            5.65934548773535        1.86202904838412       -1.31585422824865
C            5.34950121393864        3.20382363547888       -1.18075891032687
C            4.35529603773099        3.81440369764507       -0.42758217135647
C            4.28477771233205        5.19465960654426       -0.45682872611109
C            5.18084092442735        5.95648161480788       -1.20266479143806
C            6.18463333666883        5.35452835647452       -1.93747683083909
C            6.27420174924694        3.96996262329140       -1.92723751618972
C            7.17132249147792        3.03670528142796       -2.55270026783961
C            8.25097674608521        3.18239020812717       -3.41124992545388
C            8.89294850314349        2.04614880991857       -3.86650006623470
C            8.45690703351359        0.77868175075255       -3.48968093984865
C            7.38356307648166        0.60888002120745       -2.63536396117902
C            6.75363193386466        1.74678906055707       -2.14970923654471
C            5.69382542888230       -0.21057724225581       -0.06915164341785
C            5.00075987443739       -1.25738005381570        0.53576091017189
N            5.71353141221020       -2.28157954695979        1.17428707591030
C            6.71501221142955       -2.11032578740039        2.10912150881128
C            7.22444732548314       -0.94080560930405        2.65565220347062
C            8.22293915912088       -1.05432718798786        3.60430156692237
C            8.70107928414910       -2.29728343745206        4.01228398902799
C            8.17962250514838       -3.46541615566944        3.49096376353861
C            7.17640572783640       -3.37710861961898        2.53597331937234
C            6.40831961307439       -4.35537791690381        1.81609360378184
C            6.40892494860016       -5.74312964064200        1.79389006884063
C            5.52892034030164       -6.39161235870150        0.94935642243804
C            4.66782464461344       -5.67364043328476        0.12275509626065
C            4.64924952276629       -4.29185430110833        0.12687533677457
C            5.51373237423774       -3.63520189497397        0.99130831353530
C            3.61553092721784       -1.28463890905548        0.52533245579507
C            0.72228811776363        0.97745377824446       -0.03979042350601
N            1.23446353358591        2.20423616372272       -0.05833895426472
S            0.00860765094959        3.29672028377448        0.00888417564686
N           -1.22342267532005        2.21095838190099        0.07200157899281
C           -0.71820546714625        0.98137102557194        0.04882125766752
C           -3.59073362609606        0.79374511715746        0.72781230006407
C           -4.97476369159539        0.83129663395135        0.71012194121342
N           -5.65015077058878        1.88902005133232        1.32855791106471
C           -6.74524825195400        1.77670221902346        2.16176648924027
C           -7.38176819139352        0.64048756976152        2.64275655033363
C           -8.45432362805629        0.81300699992649        3.49752087854940
C           -8.88320303796695        2.08143617979188        3.87930617652580
C           -8.23463189090203        3.21578645700523        3.42875320929190
C           -7.15562176380696        3.06736313465482        2.56983974877016
C           -6.25304494989129        3.99796125064467        1.94830618941444
C           -6.15554017970944        5.38195268678883        1.96415367674036
C           -5.14817684688099        5.98110010919782        1.23196462704550
C           -4.25635597985315        5.21716996657427        0.48319459399201
C           -4.33478414272575        3.83746893706999        0.44835491889935
C           -5.33260011679210        3.22956424082241        1.19890230448400
C           -5.69638685743580       -0.17843272994994        0.07373158076045
H           -9.49851500646445       -2.27161158066018       -4.75797229139198
H           -8.64051267312056       -0.09419762791032       -4.03720695510622
H           -6.84725697494436        0.07499174986311       -2.35797541954670
H           -8.56499317280021       -4.36570890150015       -3.83112673227858
H           -7.12456780581854       -6.25008808948592       -2.44094864487255
H           -5.55458967361485       -7.43570333325410       -0.94276872411031
H           -4.03838758024316       -6.18757992332821        0.51966035353582
H           -4.01398302561852       -3.72251470001830        0.52140773607236
H           -3.11614799362880       -2.05170797736246       -1.05597952674889
H           -1.21451603486343       -2.37072154433850        0.02993405099846
H            1.19954909673665       -2.37745793342365       -0.03361158117100
H            3.04700491802881        1.54253188294010       -1.24160992885370
H            3.65229610352498        3.24164366214904        0.15615753398882
H            3.51399476087101        5.69156002895908        0.11283405141190
H            5.08995103907830        7.03249461437839       -1.20107033649836
H            6.88682562239580        5.94406027537309       -2.50739330164788
H            8.57585006289128        4.16437374591520       -3.71997269623793
H            9.73672231295471        2.13755388305211       -4.53394042312974
H            8.96443985348054       -0.09207946705025       -3.87749404438284
H            7.04012376692569       -0.38016700851333       -2.37285393375692
H            6.77174183721890       -0.18726320921531       -0.04231700798251
H            6.84586700511822        0.02699924253063        2.36361680441911
H            8.63788677381299       -0.15876219069358        4.04241912870226
H            9.48344875666321       -2.34373930620327        4.75495017220005
H            8.53823390685270       -4.42895666807592        3.81997076903262
H            7.08738339697841       -6.29981966712308        2.42239505858170
H            5.51092766230304       -7.47078754527404        0.91950665986685
H            4.00198545055427       -6.20851739787490       -0.53827911204496
H            3.99151141909355       -3.74335958757121       -0.53057457927130
H            3.10295453066666       -2.07349675901812        1.05332714023484
H           -3.03964568710750        1.55493111858750        1.25308382543721
H           -7.04392385425800       -0.34945656521761        2.37639562000815
H           -8.96691281086264       -0.05638202684750        3.88174170699453
H           -9.72660341745013        2.17499640836715        4.54691914579280
H           -8.55394284393935        4.19837249009020        3.74133520229960
H           -6.85445789800266        5.97318339475311        2.53632970931892
H           -5.05111159513956        7.05657089866655        1.23474329886375
H           -3.48263114185570        5.71193712461777       -0.08432995852233
H           -3.63497362973741        3.26306797483121       -0.13760184626857
H           -6.77414890586466       -0.14886116580237        0.04696891432107
