  97
       -158.63681240
 C          7.2308667654        4.8001805523       -0.2281150641
 C          7.9220226061        3.5985832076       -0.2545963189
 C          7.2342045910        2.4024214929       -0.1957059936
 C          5.8430065978        2.4013937489       -0.1112743089
 C          5.1124682074        1.1367677704       -0.0497793710
 N          5.8139998697        0.0084782777        0.0009398961
 C          5.1118943980       -1.1189860208        0.0586391091
 C          5.8402113329       -2.3851934465        0.1134557284
 C          5.1455073084       -3.5936543771        0.1093072532
 C          5.8365625217       -4.7883058415        0.1602348369
 C          7.2215722410       -4.7882560238        0.2169767899
 C          7.9172860933       -3.5889741432        0.2217677760
 C          7.2326724351       -2.3906258901        0.1697570462
 N          3.7810654035       -1.1639118625        0.0673039309
 C          3.1626962522        0.0100103167        0.0112623989
 C          1.6995996100        0.0087446033        0.0119275884
 C          1.0051627993       -1.1661564288        0.2767772070
 C         -0.3809624605       -1.1790123591        0.2785195715
 N         -1.0586614491       -2.3780118531        0.5387053244
 C         -2.1443353289       -2.5479526362        1.3823987403
 C         -2.6213875868       -1.7073588493        2.3761979639
 C         -3.7381638017       -2.1133077154        3.0805806787
 C         -4.3510847132       -3.3391058628        2.8300585772
 C         -3.8417799131       -4.2088761925        1.8872179158
 C         -2.7249458645       -3.8157839646        1.1622758645
 C         -1.9338012468       -4.4516503381        0.1468381530
 N         -2.0675367783       -5.6439062563       -0.4125635755
 C         -1.1870749235       -5.9602433271       -1.3430966807
 C         -0.1558774125       -5.1227872866       -1.7661291314
 C         -0.0031881816       -3.8699147535       -1.1947982690
 C         -0.9101688459       -3.5320016871       -0.2036059667
 C         -1.0982643044        0.0011543654        0.0049126043
 N         -2.4943785961       -0.0024927348        0.0001323195
 C         -3.3005458542       -0.8193002688       -0.7732150077
 C         -2.9447468671       -1.7416102357       -1.7446240798
 C         -3.9588518710       -2.4318687701       -2.3801422557
 C         -5.2964949654       -2.1898143296       -2.0816262679
 C         -5.6561116583       -1.2295021632       -1.1567192924
 C         -4.6538984722       -0.5313703809       -0.4983231150
 C         -4.6595373163        0.5205377796        0.4802265786
 C         -5.6691704020        1.2155174555        1.1305095889
 C         -5.3200440708        2.1753325099        2.0599997658
 C         -3.9857338743        2.4198187166        2.3709357583
 C         -2.9643416593        1.7332748524        1.7429557371
 C         -3.3093382916        0.8117171149        0.7669957392
 C         -0.3856573807        1.1851888040       -0.2643312929
 N         -1.0694107274        2.3796281195       -0.5301707060
 C         -2.1497907842        2.5401839224       -1.3824702512
 C         -2.6098133459        1.6963729316       -2.3815401486
 C         -3.7238056749        2.0927941838       -3.0956896823
 C         -4.3508580828        3.3121415818       -2.8486952784
 C         -3.8587024675        4.1852405433       -1.8998168118
 C         -2.7444981311        3.8019927917       -1.1656124457
 C         -1.9678922587        4.4440920306       -0.1428735075
 N         -2.1176942000        5.6342244820        0.4169204652
 C         -1.2471450698        5.9582714136        1.3541249943
 C         -0.2103760716        5.1309373995        1.7833528847
 C         -0.0412503315        3.8801543784        1.2121059876
 C         -0.9381042998        3.5340450166        0.2145849480
 C          1.0006073377        1.1802949600       -0.2553961850
 N          3.7816037228        1.1835532650       -0.0479048482
 C          5.1528401251        3.6120302577       -0.0858563642
 C          5.8470941763        4.8046205904       -0.1435981704
 H          7.7715889591        5.7341971313       -0.2733824424
 H          9.0005528385        3.5980231424       -0.3197278657
 H          7.7548200187        1.4574463205       -0.2141619943
 H          4.0676466887       -3.5756297112        0.0651281149
 H          5.2965729541       -5.7239291263        0.1573010606
 H          7.7595750333       -5.7240628673        0.2570619453
 H          8.9963791051       -3.5919078651        0.2664815005
 H          7.7559770031       -1.4478100856        0.1753059120
 H          1.5572459388       -2.0618686445        0.5118001081
 H         -2.1364843555       -0.7705821072        2.6030251585
 H         -4.1397096637       -1.4647129135        3.8448405679
 H         -5.2257255742       -3.6157414913        3.3991655291
 H         -4.2851994348       -5.1750498090        1.7071423014
 H         -1.3121669369       -6.9396395894       -1.7849355573
 H          0.5182959184       -5.4509541627       -2.5421355044
 H          0.7775763405       -3.1948691518       -1.5163132725
 H         -1.9124980020       -1.9144320200       -2.0111422710
 H         -3.7056353307       -3.1698343003       -3.1266045217
 H         -6.0608040542       -2.7521230469       -2.5963864768
 H         -6.6941801601       -1.0200419835       -0.9486678259
 H         -6.7048961300        1.0037147197        0.9131823962
 H         -6.0902979112        2.7352100072        2.5685503236
 H         -3.7406630601        3.1571692976        3.1207298382
 H         -1.9348585069        1.9085282165        2.0186728103
 H         -2.1138209890        0.7645704753       -2.6050855530
 H         -4.1119902920        1.4417998014       -3.8648048629
 H         -5.2230636695        3.5811638934       -3.4251791749
 H         -4.3134532854        5.1465548520       -1.7219585626
 H         -1.3855364296        6.9355918940        1.7966005701
 H          0.4558271978        5.4657365124        2.5633997769
 H          0.7448970498        3.2131008542        1.5373028721
 H          1.5486960367        2.0790807000       -0.4881526448
 H          4.0765256979        3.5973918211       -0.0181699875
 H          5.3109763076        5.7419522380       -0.1224479001
