  132
  -192.426874830000       0.716347977683727      !
 C         -5.3747742119       -1.1844793982        3.7396961936
 C         -5.1203808110       -1.9151315370        2.4114904489
 C         -5.9653796709       -1.2578977259        1.3120472158
 C         -5.5844793252       -3.3673013025        2.5593513081
 C         -3.6290969316       -1.8029940315        2.1192265133
 C         -2.7412724728       -2.8609229887        2.3213754418
 C         -1.3826536307       -2.6819407204        2.1898931735
 C         -0.8584230772       -1.4295848029        1.8723715735
 C         -1.7152914616       -0.3457138113        1.6100482215
 C         -3.0874350149       -0.5874764084        1.7363250270
 B         -1.0495261511        1.0002460233        1.2341231897
 C         -1.6029586064        2.4227738417        0.9722789444
 C         -2.9053325905        2.8749225709        1.2263046024
 C         -3.3468230284        4.1511956045        0.9332372865
 C         -4.7377097805        4.6546446547        1.2934935009
 C         -5.4766067711        5.1085960503        0.0275508728
 C         -4.5862873659        5.8421229972        2.2559246408
 C         -5.5946160975        3.5902550986        1.9858030815
 C         -2.4424816018        5.0143705048        0.3064004442
 C         -1.1408036124        4.6362860888        0.0817858733
 C         -0.6994939926        3.3657078878        0.4553811411
 O          0.6405166072        3.1644496936        0.3168173730
 C          1.2321017465        2.0342215864        0.7718647586
 C          2.6165322559        2.0162375655        0.8137663044
 C          3.2828373697        0.8797335233        1.2751155579
 N          4.6735744887        0.8493338727        1.3117693729
 C          5.4357229902        1.6807499228        0.4493436528
 C          5.6510571145        3.0286496475        0.6779501438
 C          6.4625817068        3.7404057097       -0.1925305448
 C          7.0697909683        3.1133763600       -1.2669703043
 C          6.8709586569        1.7593008320       -1.4933924899
 C          6.0499916919        1.0518391788       -0.6395542617
 N          5.7785982597       -0.3472344962       -0.7922865863
 C          4.4529953604       -0.6099015478       -1.1995693277
 C          3.8832931746       -1.8473308028       -0.9067234959
 C          2.5265302589       -2.0435113816       -1.1065753799
 C          1.6968007505       -1.0234286763       -1.5960694475
 C          2.3188497721        0.1788688390       -1.9623705833
 C          3.6813886724        0.3783503445       -1.8057816991
 O          1.6036275956        1.2236511785       -2.4336680045
 C          0.2416497480        1.2077383389       -2.4405580053
 C         -0.3415757441        2.4075465590       -2.8428015107
 C         -1.7095043962        2.5311973265       -2.9202371327
 C         -2.5402106206        1.4640415163       -2.5817325906
 C         -4.0544140107        1.5280987709       -2.7126837097
 C         -4.5421298080        2.9017862287       -3.1800628186
 C         -4.5032483625        0.4824416267       -3.7442586703
 C         -4.6978902886        1.2255069088       -1.3549635552
 C         -1.9383684319        0.2950843973       -2.1469457564
 C         -0.5540782020        0.1055063166       -2.0777975177
 B          0.1876028552       -1.1915265251       -1.6618329392
 C         -0.2819272565       -2.6265890039       -1.3082070644
 C         -1.5856505927       -3.1281854276       -1.4129733125
 C         -1.9407559748       -4.4269952594       -1.1004646602
 C         -3.3566381669       -4.9480862317       -1.2950501907
 C         -3.4045160153       -5.7006589101       -2.6328233255
 C         -3.7450786251       -5.9052692287       -0.1599548495
 C         -4.3780616020       -3.8061968769       -1.3246307260
 C         -0.9316841050       -5.2824832049       -0.6525044392
 C          0.3647456311       -4.8430530208       -0.5358055317
 C          0.7009238379       -3.5311678164       -0.8710437031
 O          2.0256159496       -3.2447600715       -0.7451561414
 C          6.0360248223       -0.9460535473        0.4892564226
 C          6.8487362556       -2.0453607582        0.6726600925
 C          6.9768376892       -2.5797876986        1.9466357102
 C          6.2974929386       -2.0186406475        3.0149571788
 C          5.5015294440       -0.8978700287        2.8383540271
 C          5.3757554694       -0.3545972447        1.5711672094
 C          2.5454205830       -0.2451107382        1.6484586903
 C          1.1616791802       -0.2219932045        1.5656084204
 C          0.4652733195        0.9292122929        1.1692894490
 O          0.5033052324       -1.3615008932        1.8830495752
 H         -5.0898873660       -0.1378656091        3.6647936372
 H         -6.4286910946       -1.2384754788        4.0049729223
 H         -4.7925171332       -1.6383132384        4.5388993662
 H         -5.7458643129       -1.6952677097        0.3414813966
 H         -5.7906334042       -0.1877635360        1.2557613330
 H         -7.0223234018       -1.4092126525        1.5219611829
 H         -5.3620239259       -3.9399095903        1.6627549026
 H         -5.1150003691       -3.8472129874        3.4144207089
 H         -6.6608397022       -3.3907602240        2.7186730368
 H         -3.1008265468       -3.8379420849        2.6003457368
 H         -0.6989306248       -3.5011152647        2.3518144215
 H         -3.7506593739        0.2359256556        1.5355136678
 H         -3.5713672998        2.1848776883        1.7137523317
 H         -5.6241689723        4.2668690471       -0.6444595817
 H         -4.9227274426        5.8786855421       -0.5021537906
 H         -6.4521458381        5.5129937048        0.2900580548
 H         -4.0453373589        5.5352402800        3.1487414590
 H         -4.0410372314        6.6594163174        1.7922369240
 H         -5.5652515751        6.2113637344        2.5547984252
 H         -5.7550484913        2.7314186455        1.3380305358
 H         -5.1339094970        3.2587239269        2.9136070135
 H         -6.5683522906        4.0120328142        2.2273419615
 H         -2.7481364783        6.0093853318        0.0194544053
 H         -0.4301496708        5.3209734415       -0.3554134905
 H          3.1562786512        2.8819566278        0.4690571578
 H          5.1949644952        3.5119903392        1.5284115454
 H          6.6272045675        4.7936939685       -0.0221548033
 H          7.7024631277        3.6791672686       -1.9337183104
 H          7.3300450199        1.2565759042       -2.3301771001
 H          4.4683304325       -2.6398676378       -0.4693138870
 H          4.1018358475        1.3333582884       -2.0762762077
 H          0.3064100960        3.2328866105       -3.0956169343
 H         -2.1189354090        3.4728148125       -3.2460454558
 H         -4.2270637706        3.6798149339       -2.4889110913
 H         -5.6298369497        2.9063282755       -3.2266965218
 H         -4.1648154799        3.1337313064       -4.1733592472
 H         -4.2353844168       -0.5217965462       -3.4276732921
 H         -5.5827110776        0.5231017304       -3.8762147591
 H         -4.0300262869        0.6730655425       -4.7052736844
 H         -4.3546124569        1.9511145955       -0.6218164645
 H         -5.7828287077        1.2803020997       -1.4309323653
 H         -4.4299220494        0.2330610617       -1.0052952133
 H         -2.5642421458       -0.5261554573       -1.8404584801
 H         -2.3369876023       -2.4540534140       -1.7823433601
 H         -4.4030582521       -6.0955056028       -2.8091776104
 H         -2.6989289792       -6.5284989651       -2.6324698255
 H         -3.1444853783       -5.0335933953       -3.4522257450
 H         -3.5428119586       -5.4476785659        0.8052308091
 H         -3.1977335982       -6.8416998038       -0.2204699557
 H         -4.8056993873       -6.1424688180       -0.2183045195
 H         -4.2377526921       -3.1588796913       -0.4617334217
 H         -4.2852478056       -3.2142765890       -2.2321577411
 H         -5.3884996719       -4.2102751441       -1.2999969747
 H         -1.1520034557       -6.3084076694       -0.4034320231
 H          1.1494310078       -5.5043800844       -0.2002661940
 H          7.3525575189       -2.4860738951       -0.1735038686
 H          7.6035576269       -3.4447083654        2.1019594415
 H          6.3953685240       -2.4502832408        3.9996219575
 H          4.9802328126       -0.4473796217        3.6691604579
 H          3.0340027344       -1.1531514618        1.9618950213
  132
  -192.425999360000       0.283652022316273      !
 C         -5.2225285565       -2.1219348805        3.9985619960
 C         -5.0679657806       -1.8502667734        2.4942575541
 C         -5.8950953442       -0.6081539851        2.1494522150
 C         -5.6340158955       -3.0336980068        1.7008848554
 C         -3.5838905852       -1.6723696803        2.2027875805
 C         -2.6994492430       -2.7313567634        2.4316272302
 C         -1.3416604106       -2.5638479177        2.3012537985
 C         -0.8133081423       -1.3180367851        1.9577543519
 C         -1.6651270295       -0.2422429438        1.6564917393
 C         -3.0417011892       -0.4744863598        1.7786291955
 B         -0.9958424088        1.0921414799        1.2479954766
 C         -1.5457205158        2.5079387026        0.9429737463
 C         -2.8482293325        2.9708492615        1.1771300719
 C         -3.2809244194        4.2427844829        0.8535876657
 C         -4.6662524751        4.7675603168        1.2049621531
 C         -5.4182319493        5.1616804328       -0.0729841460
 C         -4.5012269510        6.0003859955        2.1066740114
 C         -5.5157996730        3.7413953441        1.9609441429
 C         -2.3715441807        5.0844643111        0.2050800335
 C         -1.0702475841        4.6960451414       -0.0023572848
 C         -0.6351975806        3.4355948798        0.4107734740
 O          0.7061244934        3.2297055495        0.2914815887
 C          1.2918825228        2.1123447392        0.7837202313
 C          2.6757652876        2.0934593483        0.8393253014
 C          3.3349817719        0.9672658836        1.3342385985
 N          4.7271131829        0.9339294192        1.3771392521
 C          5.4736665413        1.7059671115        0.4454356936
 C          5.7355787956        3.0547688491        0.6081518989
 C          6.5153883687        3.7094248709       -0.3332664994
 C          7.0426941903        3.0243050079       -1.4144940663
 C          6.7968429468        1.6686457717       -1.5749020140
 C          6.0090548316        1.0170259705       -0.6477827918
 N          5.7002898428       -0.3795571470       -0.7276282235
 C          4.3652535805       -0.6409751154       -1.0984472975
 C          3.7916512970       -1.8658509705       -0.7616906856
 C          2.4364429875       -2.0687604501       -0.9653061831
 C          1.6126670358       -1.0640864765       -1.4940365443
 C          2.2316478947        0.1337585326       -1.8780583785
 C          3.5938873472        0.3358215565       -1.7237324862
 O          1.5147227239        1.1656458889       -2.3759170901
 C          0.1524903549        1.1420757807       -2.3932715856
 C         -0.4389775386        2.3347862152       -2.8039966566
 C         -1.8078377932        2.4439470801       -2.8917749878
 C         -2.6320507866        1.3712520828       -2.5541699442
 C         -4.1470737365        1.4267175845       -2.6809782750
 C         -4.6400922072        2.7747232719       -3.2128847431
 C         -4.6077965809        0.3323331273       -3.6551633977
 C         -4.7745133496        1.1908896365       -1.3023660007
 C         -2.0232935039        0.2094444823       -2.1098315744
 C         -0.6377405756        0.0346804280       -2.0354519414
 B          0.1104290968       -1.2535341956       -1.6120131997
 C         -0.3459741762       -2.7025131596       -1.3108986754
 C         -1.6155059428       -3.2431005505       -1.5565909480
 C         -1.9522926295       -4.5568296428       -1.2944611230
 C         -3.3083728944       -5.1536692474       -1.6384422953
 C         -4.3016938031       -4.1024153260       -2.1407587447
 C         -3.1127388966       -6.2004027205       -2.7448060170
 C         -3.9044625451       -5.8231645274       -0.3929259095
 C         -0.9738819160       -5.3725078591       -0.7184452217
 C          0.2896301842       -4.8952640483       -0.4700766904
 C          0.6219708891       -3.5784917686       -0.7917430075
 O          1.9284176730       -3.2595553583       -0.5770518100
 C          5.9938290671       -0.9368566553        0.5636413013
 C          6.7758648470       -2.0576952511        0.7527304544
 C          6.9522980230       -2.5434689713        2.0401873765
 C          6.3511303559       -1.9134219539        3.1168858621
 C          5.5844021776       -0.7735807877        2.9323425134
 C          5.4102674349       -0.2799218316        1.6510161151
 C          2.5928202519       -0.1434562889        1.7373021226
 C          1.2102242374       -0.1209612062        1.6392888399
 C          0.5196246020        1.0188978246        1.2021107017
 O          0.5479195766       -1.2509679350        1.9807920776
 H         -4.8252391673       -1.2880570011        4.5735544176
 H         -6.2730712699       -2.2482674596        4.2524817474
 H         -4.6884553330       -3.0215339990        4.2923981115
 H         -5.8259035886       -0.3710509578        1.0907580543
 H         -5.5719422367        0.2520052444        2.7305986195
 H         -6.9413326588       -0.7941957679        2.3846990822
 H         -5.4715855301       -2.8883876655        0.6354306709
 H         -5.1678207398       -3.9685771083        1.9980662994
 H         -6.7043345743       -3.1237967001        1.8751491995
 H         -3.0722084937       -3.6991502207        2.7317446222
 H         -0.6603443808       -3.3803697323        2.4851848512
 H         -3.6951414836        0.3432603213        1.5351450666
 H         -3.5206520238        2.2956838961        1.6764438506
 H         -6.3840865354        5.5939833788        0.1808274705
 H         -5.5881487952        4.2864408649       -0.6951196511
 H         -4.8612482937        5.8930742651       -0.6523733938
 H         -3.9426076795        5.7383635858        3.0029493760
 H         -3.9687851643        6.7971799060        1.5950194891
 H         -5.4760647701        6.3802802531        2.4058308371
 H         -5.6971167584        2.8553852928        1.3570838939
 H         -5.0367063206        3.4481250208        2.8923509419
 H         -6.4807858852        4.1818640440        2.2041982301
 H         -2.6725450766        6.0718866191       -0.1115428230
 H         -0.3545773287        5.3662300439       -0.4537592552
 H          3.2214713309        2.9491156273        0.4788689795
 H          5.3366340844        3.5825668435        1.4609287348
 H          6.7164813187        4.7635324792       -0.2152347503
 H          7.6495350617        3.5461716708       -2.1386717573
 H          7.1939096945        1.1218356622       -2.4157982808
 H          4.3755315611       -2.6453086129       -0.2999919970
 H          4.0159718974        1.2833022843       -2.0170099655
 H          0.2017653592        3.1669408924       -3.0527352429
 H         -2.2236748001        3.3810430916       -3.2224548089
 H         -4.3371968233        3.5859837509       -2.5556527100
 H         -5.7273617941        2.7699022655       -3.2688792303
 H         -4.2543365259        2.9637100494       -4.2120602254
 H         -4.3515669757       -0.6575096143       -3.2881172329
 H         -5.6871487894        0.3773868946       -3.7872458425
 H         -4.1354012310        0.4686205449       -4.6257438856
 H         -4.4182097464        1.9467008070       -0.6066733473
 H         -5.8603181081        1.2480119626       -1.3656308875
 H         -4.5019150106        0.2133033186       -0.9140489550
 H         -2.6398266312       -0.6178569565       -1.7984226381
 H         -2.3413889746       -2.5888338026       -2.0058554002
 H         -5.2666906490       -4.5705468326       -2.3258002777
 H         -3.9628927546       -3.6569863907       -3.0734045516
 H         -4.4410761531       -3.3176326250       -1.4006357123
 H         -2.4340123081       -6.9865310618       -2.4244519077
 H         -2.6955914475       -5.7338908665       -3.6349007969
 H         -4.0662876071       -6.6548721098       -3.0063194994
 H         -3.3280400303       -6.6940779994       -0.0942174146
 H         -3.9164165353       -5.1188436789        0.4343629294
 H         -4.9243367087       -6.1470538730       -0.5902503918
 H         -1.1929744271       -6.4020668967       -0.4799040615
 H          1.0541913345       -5.5314420361       -0.0501704316
 H          7.2199332839       -2.5503696240       -0.0982894993
 H          7.5560194809       -3.4237907657        2.2001933610
 H          6.4868988828       -2.3065458622        4.1131172514
 H          5.1206698687       -0.2716036537        3.7676932691
 H          3.0772676184       -1.0417785555        2.0836189543
