  85
       -125.67508548
 C          1.4589162846        4.4784998613       -1.0709811368
 C          2.2982094837        3.9286245064        0.0907552938
 C          3.7590201885        4.3182304981       -0.1519178451
 C          1.8444757386        4.5697268457        1.4100028652
 C          2.0953965498        2.4236926702        0.1784545360
 C          3.1438185016        1.5258803549        0.0566047315
 C          2.9179036188        0.1483924227        0.1050652509
 C          1.6160880733       -0.3522848773        0.2795884739
 C          0.5713834648        0.5695983674        0.4664489972
 C          0.8095500172        1.9352993404        0.3892309806
 N         -0.7149050869        0.0875887251        0.6792864476
 C         -1.6313323012        0.8066214864        1.4541730831
 C         -1.1985832476        1.6005914562        2.5161804379
 C         -2.1084939524        2.2982389114        3.2841004950
 C         -3.4643549227        2.2003411076        3.0179607102
 C         -3.9030792817        1.3746112234        1.9992270162
 C         -3.0000083870        0.6654258393        1.2224620380
 C         -3.4528338819       -0.2394162535        0.1031460154
 C         -4.8725745406       -0.7178824002        0.2876608715
 C         -5.3867162601       -1.4947793446        1.3043490992
 C         -6.7361006758       -1.8190504602        1.2744251917
 C         -7.5509957441       -1.3711715811        0.2451871853
 C         -7.0392609108       -0.5896477419       -0.7781900916
 C         -5.6930969029       -0.2634702639       -0.7537815506
 C         -4.8821349489        0.5229923113       -1.6695935873
 C         -5.2190645098        1.1847797515       -2.8383191262
 C         -4.2280179587        1.8697013586       -3.5226921506
 C         -2.9253498369        1.8906197617       -3.0498074045
 C         -2.5805691595        1.2283159788       -1.8787803436
 C         -3.5635787228        0.5482785047       -1.1931487057
 C         -2.4670809929       -1.3774059629       -0.0565136950
 C         -2.8807777203       -2.5993102851       -0.5524362483
 C         -1.9602712566       -3.6062055096       -0.8022863705
 C         -0.6239620398       -3.3884529011       -0.5502673239
 C         -0.1570340752       -2.1785134299       -0.0282387039
 C         -1.1074821406       -1.1612389716        0.2025965246
 B          1.3325952054       -1.8388285603        0.2081632962
 C          2.5837531073       -2.7316226631        0.2678915045
 C          2.5675910832       -4.1149943553        0.4850963650
 C          3.7146946537       -4.8751103182        0.4976495478
 C          4.9412594123       -4.2564230205        0.2870367830
 C          5.0083634588       -2.8948859620        0.1034438079
 C          3.8454832551       -2.1109560860        0.1115611913
 N          3.9657080650       -0.7397472970       -0.0325616277
 C          5.2550086098       -0.1981294352       -0.3131108909
 C          5.6711762030       -0.0642072411       -1.6308243265
 C          6.9159108291        0.4733863310       -1.9080009896
 C          7.7440351931        0.8787944936       -0.8747551693
 C          7.3281391717        0.7456165149        0.4400518046
 C          6.0856807363        0.2080405730        0.7242882534
 H          0.3987788766        4.2969646257       -0.9167529025
 H          1.7545181995        4.0038833446       -2.0045287149
 H          1.6091915154        5.5519522865       -1.1662773817
 H          3.8389026497        5.4019735765       -0.2111933626
 H          4.3969451194        3.9791415020        0.6611208652
 H          4.1256819397        3.9025645769       -1.0878589985
 H          2.0006860888        5.6460389232        1.3768189088
 H          2.4178187412        4.1640102339        2.2414787008
 H          0.7904493379        4.3851378338        1.5988361589
 H          4.1484340067        1.8838537710       -0.0850302719
 H         -0.0220512739        2.6173908305        0.4754464469
 H         -0.1439955788        1.6600922654        2.7392280008
 H         -1.7570608460        2.9152464086        4.0977964507
 H         -4.1775093429        2.7552707095        3.6080900386
 H         -4.9600468340        1.2812627636        1.7989641902
 H         -4.7509432212       -1.8440679281        2.1051358253
 H         -7.1564473788       -2.4281262043        2.0612884841
 H         -8.5983537779       -1.6364757246        0.2422205577
 H         -7.6775189865       -0.2434926859       -1.5776135462
 H         -6.2332288023        1.1683008571       -3.2092034932
 H         -4.4721972536        2.3922910821       -4.4361795680
 H         -2.1661452086        2.4282986129       -3.5988709684
 H         -1.5607157008        1.2497262473       -1.5254651338
 H         -3.9257701070       -2.7583038819       -0.7742644378
 H         -2.2954992503       -4.5488000726       -1.2095693460
 H          0.0918069215       -4.1609865366       -0.7856851868
 H          1.6165352473       -4.5918165967        0.6687010783
 H          3.6671537816       -5.9406362037        0.6679991091
 H          5.8504460458       -4.8403217824        0.2815973060
 H          5.9728817789       -2.4288732275       -0.0339647596
 H          5.0152633769       -0.3830492122       -2.4273810520
 H          7.2387015194        0.5772383420       -2.9331044289
 H          8.7141844139        1.2990120601       -1.0934479464
 H          7.9737253890        1.0604382291        1.2462348712
 H          5.7489501364        0.0998923502        1.7449619436
  85
       -125.67495112
 C          1.4478689219        4.5080549845       -0.9422776797
 C          2.2842269031        3.9275576486        0.2065395306
 C          3.7458716641        4.3234999857       -0.0206410997
 C          1.8272403925        4.5343176998        1.5410375206
 C          2.0814586544        2.4208340193        0.2560531078
 C          3.1277097531        1.5257655469        0.1012168343
 C          2.9027062912        0.1477484600        0.1307567686
 C          1.6061908171       -0.3575552438        0.3294251095
 C          0.5614344910        0.5611545361        0.5324796973
 C          0.7976299641        1.9280174770        0.4677208223
 N         -0.7226933306        0.0756711964        0.7452851708
 C         -1.6499145842        0.8011519617        1.5017647226
 C         -1.2334997812        1.5909682252        2.5730148726
 C         -2.1545620201        2.2961164345        3.3206692891
 C         -3.5048097184        2.2101808834        3.0233651303
 C         -3.9282608514        1.3879573181        1.9952317772
 C         -3.0140651500        0.6705614173        1.2393723060
 C         -3.4445743175       -0.2378556328        0.1143240831
 C         -4.8777507427       -0.6908679694        0.2507844559
 C         -5.4462350608       -1.4362429278        1.2623205530
 C         -6.7982591574       -1.7408508406        1.1833025356
 C         -7.5625084287       -1.3057697198        0.1106343659
 C         -6.9961770771       -0.5565263528       -0.9080122992
 C         -5.6474294126       -0.2492384159       -0.8340595869
 C         -4.7881186797        0.5052886830       -1.7322106256
 C         -5.0671194499        1.1406551329       -2.9305024200
 C         -4.0399288958        1.7969100390       -3.5889896938
 C         -2.7588658683        1.8161547522       -3.0604879703
 C         -2.4721377004        1.1798488146       -1.8597928932
 C         -3.4910310214        0.5274346934       -1.1998814587
 C         -2.4695572030       -1.3917078924        0.0035294547
 C         -2.8838218967       -2.6233011563       -0.4665999560
 C         -1.9645665235       -3.6392943778       -0.6829587821
 C         -0.6284217719       -3.4175549156       -0.4334994527
 C         -0.1610022932       -2.1970816046        0.0632677932
 C         -1.1120811672       -1.1766164563        0.2750875697
 B          1.3294726467       -1.8464091450        0.2770154887
 C          2.5870833468       -2.7313671516        0.3200079466
 C          2.5858615394       -4.1114395983        0.5574258380
 C          3.7364603461       -4.8660390655        0.5374397257
 C          4.9505250681       -4.2458772306        0.2665361829
 C          5.0041772029       -2.8867198920        0.0621249866
 C          3.8395336866       -2.1070410734        0.1114829725
 N          3.9482470020       -0.7365404101       -0.0451722202
 C          5.2146440116       -0.1896120706       -0.4076942416
 C          5.5231357083       -0.0166324064       -1.7504070924
 C          6.7400797524        0.5340876853       -2.1118438611
 C          7.6484889140        0.9126238263       -1.1375411599
 C          7.3407462875        0.7393667937        0.2020151896
 C          6.1260099524        0.1894123148        0.5704895592
 H          0.3882861370        4.3153772125       -0.7995253440
 H          1.7511805357        4.0643742818       -1.8882504278
 H          1.5918317781        5.5846680074       -1.0039569099
 H          3.8269385742        5.4085219014       -0.0468257940
 H          4.3808288582        3.9589175462        0.7837129765
 H          4.1152472507        3.9361428331       -0.9675333062
 H          2.3960505344        4.1039496361        2.3629323925
 H          0.7719657551        4.3480220113        1.7213921986
 H          1.9867406344        5.6106313044        1.5382567151
 H          4.1302852141        1.8863578476       -0.0480939242
 H         -0.0337414132        2.6084425745        0.5666033181
 H         -0.1833187856        1.6414835388        2.8183840292
 H         -1.8164982813        2.9102781701        4.1421496793
 H         -4.2261970923        2.7714507784        3.5973693503
 H         -4.9814235347        1.3034968948        1.7720387811
 H         -4.8503108845       -1.7758732333        2.0972711360
 H         -7.2606261309       -2.3244638842        1.9659014049
 H         -8.6129463799       -1.5553800691        0.0698022596
 H         -7.5947983054       -0.2199030110       -1.7415799414
 H         -6.0646778069        1.1252556417       -3.3440122238
 H         -4.2385722789        2.2988208878       -4.5249599231
 H         -1.9703005181        2.3320775503       -3.5887585533
 H         -1.4675702290        1.2007239141       -1.4658313046
 H         -3.9270325807       -2.7838492365       -0.6953051518
 H         -2.3002642871       -4.5914646345       -1.0668403941
 H          0.0867143408       -4.1959636835       -0.6504376876
 H          1.6445771647       -4.5898273335        0.7830544780
 H          3.7008883107       -5.9289307706        0.7259750828
 H          5.8610444482       -4.8266302583        0.2303841893
 H          5.9596070206       -2.4186834564       -0.1239917171
 H          4.8045248836       -0.3130659307       -2.4998904076
 H          6.9781948724        0.6696501959       -3.1562019059
 H          8.5966322462        1.3436680564       -1.4217764709
 H          8.0487865044        1.0340109389        0.9622531840
 H          5.8739738372        0.0500193391        1.6114360267
  85
       -125.67481063
 C          3.0148150707        4.2213255706       -1.2737173195
 C          2.3664644300        3.9172543234        0.0841766475
 C          3.3296878226        4.3001509967        1.2168302437
 C          1.1087368784        4.7808302005        0.2149093244
 C          2.0699691138        2.4278679923        0.1737965926
 C          3.1214632811        1.5290876827        0.0421601198
 C          2.9044682719        0.1535554088        0.0827221105
 C          1.6035509740       -0.3509560917        0.2644645420
 C          0.5598562022        0.5674555021        0.4617846829
 C          0.7894541020        1.9385189702        0.3886947997
 N         -0.7235633720        0.0823133382        0.6819881250
 C         -1.6360515287        0.7959027964        1.4668467242
 C         -1.1974380399        1.5830235924        2.5313599449
 C         -2.1033564388        2.2730232241        3.3107097935
 C         -3.4607118908        2.1751612757        3.0523573370
 C         -3.9049057425        1.3563360856        2.0304780607
 C         -3.0058335310        0.6535520490        1.2432881194
 C         -3.4631453121       -0.2484680724        0.1232590861
 C         -4.8834023084       -0.7236449281        0.3122484284
 C         -5.3961732231       -1.5006518523        1.3295973502
 C         -6.7473328935       -1.8181276188        1.3059266991
 C         -7.5655600423       -1.3632470928        0.2823706729
 C         -7.0552249466       -0.5817317089       -0.7417184922
 C         -5.7073032629       -0.2626034514       -0.7235971364
 C         -4.8975964597        0.5225267970       -1.6415544309
 C         -5.2378765083        1.1874422750       -2.8075026668
 C         -4.2474802290        1.8686644325       -3.4963481849
 C         -2.9423199689        1.8827884378       -3.0302087810
 C         -2.5943482547        1.2180919450       -1.8615393283
 C         -3.5766841686        0.5416838440       -1.1713893053
 C         -2.4779386558       -1.3865325558       -0.0397417564
 C         -2.8933200892       -2.6106515326       -0.5284525531
 C         -1.9728521028       -3.6169134544       -0.7816697968
 C         -0.6348953396       -3.3958587861       -0.5418351621
 C         -0.1657751385       -2.1833236815       -0.0274560713
 C         -1.1166668235       -1.1677740079        0.2091214956
 B          1.3248384132       -1.8387548056        0.1950243650
 C          2.5797342197       -2.7275230472        0.2445509113
 C          2.5701643724       -4.1106396798        0.4631363178
 C          3.7198938373       -4.8670706454        0.4656297369
 C          4.9422412089       -4.2451161517        0.2406450711
 C          5.0032033059       -2.8835090933        0.0549824390
 C          3.8382265393       -2.1032251576        0.0763379232
 N          3.9532831725       -0.7318308339       -0.0672225543
 C          5.2383126546       -0.1810723423       -0.3486744692
 C          5.6471895745       -0.0288300227       -1.6667569236
 C          6.8845056863        0.5259143898       -1.9435259811
 C          7.7126013746        0.9299322747       -0.9096448194
 C          7.3044010399        0.7776444289        0.4055086723
 C          6.0691581010        0.2232602846        0.6893584083
 H          2.3484625845        3.9264485844       -2.0816922870
 H          3.9537166957        3.6880322129       -1.3949063495
 H          3.2153095187        5.2869942219       -1.3629516145
 H          3.5449149665        5.3660954104        1.1816239766
 H          2.8841873289        4.0699632333        2.1825591033
 H          4.2694010624        3.7601286310        1.1371598928
 H          1.3816507667        5.8314407555        0.1369805567
 H          0.6261286726        4.6307355865        1.1779926621
 H          0.3970528357        4.5595092623       -0.5771795642
 H          4.1229624809        1.9007872972       -0.1018220271
 H         -0.0483154498        2.6087427626        0.4829493253
 H         -0.1412734083        1.6424441469        2.7470638887
 H         -1.7480453479        2.8842399655        4.1270588085
 H         -4.1709349001        2.7241747931        3.6515562493
 H         -4.9631292720        1.2621810446        1.8373744507
 H         -4.7580136133       -1.8557652541        2.1258899136
 H         -7.1665973193       -2.4267346029        2.0937069107
 H         -8.6145411438       -1.6220119584        0.2850183061
 H         -7.6959922638       -0.2295068410       -1.5364812566
 H         -6.2542802778        1.1767100816       -3.1724339415
 H         -4.4941899219        2.3943627929       -4.4074328038
 H         -2.1834909517        2.4169193073       -3.5834243373
 H         -1.5723854695        1.2339421993       -1.5142964064
 H         -3.9397201876       -2.7722240114       -0.7415745280
 H         -2.3096640877       -4.5616790512       -1.1824898034
 H          0.0803496972       -4.1675466555       -0.7815137158
 H          1.6226771537       -4.5902264667        0.6579637010
 H          3.6774242036       -5.9323209398        0.6389222153
 H          5.8529649196       -4.8264121661        0.2253608760
 H          5.9644611462       -2.4141859514       -0.0944200940
 H          4.9903529600       -0.3441317585       -2.4639172205
 H          7.2009626816        0.6460146816       -2.9689669241
 H          8.6762817198        1.3649217722       -1.1283075263
 H          7.9490042860        1.0928310817        1.2123179607
 H          5.7383071709        0.1004436273        1.7100462516
  85
       -125.67471659
 C          1.1409708000        4.7914376594        0.0924183257
 C          2.3975515606        3.9208217115        0.0057208050
 C          3.0768144961        4.1963659580       -1.3431022548
 C          3.3372163639        4.3223466396        1.1515630240
 C          2.0928861173        2.4343792880        0.1150844388
 C          3.1444930497        1.5299227049        0.0308850664
 C          2.9204697686        0.1558137469        0.0823758306
 C          1.6114795107       -0.3405463647        0.2235971580
 C          0.5678386181        0.5840944787        0.3880590856
 C          0.8048681911        1.9530308461        0.3025257839
 N         -0.7214061512        0.1067723374        0.5958758034
 C         -1.6300666068        0.8225798783        1.3829800351
 C         -1.1854731983        1.6232618431        2.4353018780
 C         -2.0864572764        2.3170896995        3.2167507744
 C         -3.4460144115        2.2091787080        2.9746932170
 C         -3.8958631485        1.3761784163        1.9670648496
 C         -3.0015318733        0.6700901811        1.1771290652
 C         -3.4725582913       -0.2430330484        0.0721882907
 C         -4.8765477140       -0.7469450222        0.3058986385
 C         -5.3391968129       -1.5367788641        1.3370754160
 C         -6.6830422689       -1.8841520965        1.3553083083
 C         -7.5428791826       -1.4459347996        0.3590346368
 C         -7.0828109507       -0.6511749360       -0.6786822584
 C         -5.7424355455       -0.3019424097       -0.7023636535
 C         -4.9785614054        0.5019073206       -1.6434029935
 C         -5.3686943616        1.1650252953       -2.7946502155
 C         -4.4140206616        1.8686754372       -3.5109833206
 C         -3.0949131794        1.9066833442       -3.0870019608
 C         -2.6968733113        1.2438159573       -1.9333520765
 C         -3.6436863551        0.5454307307       -1.2163199076
 C         -2.4759095059       -1.3659001081       -0.1203409594
 C         -2.8879784056       -2.5844332701       -0.6261367679
 C         -1.9653005539       -3.5837825190       -0.8968132390
 C         -0.6288230070       -3.3649945344       -0.6469480387
 C         -0.1632563567       -2.1589471786       -0.1147532474
 C         -1.1145551279       -1.1438785859        0.1244730732
 B          1.3246610509       -1.8257955956        0.1405849013
 C          2.5707942689       -2.7240943232        0.2245941621
 C          2.5424598220       -4.1090755271        0.4299062322
 C          3.6857375369       -4.8739035431        0.4750195337
 C          4.9210888898       -4.2582141075        0.3126201583
 C          4.9992173153       -2.8953896492        0.1428356279
 C          3.8395077763       -2.1073481291        0.1153100450
 N          3.9699265591       -0.7359666759       -0.0164864392
 C          5.2759716300       -0.1907373862       -0.1921895543
 C          5.8023211147       -0.0501098126       -1.4691882553
 C          7.0623462389        0.4975281733       -1.6368458041
 C          7.7957192705        0.9065899850       -0.5355264107
 C          7.2698584266        0.7664943587        0.7385601979
 C          6.0117723284        0.2187520878        0.9134931240
 H          0.6356324596        4.6595822191        1.0464662356
 H          0.4470181267        4.5592264161       -0.7121491281
 H          1.4201293096        5.8395021369        0.0027864128
 H          3.2867498807        5.2589392746       -1.4467521699
 H          4.0141768449        3.6542180681       -1.4342882330
 H          2.4257529241        3.8916625318       -2.1598710779
 H          4.2773760441        3.7795392207        1.1021230213
 H          2.8705325667        4.1105908059        2.1114497096
 H          3.5554786319        5.3871203270        1.1017219058
 H          4.1515472550        1.8959851053       -0.0864453667
 H         -0.0324239238        2.6274192680        0.3670849607
 H         -0.1278162897        1.6904754274        2.6407832357
 H         -1.7251546813        2.9391873931        4.0222128309
 H         -4.1527596656        2.7611552028        3.5752366775
 H         -4.9555067928        1.2732342901        1.7864281720
 H         -4.6684488400       -1.8782165992        2.1122524315
 H         -7.0635833596       -2.5034696479        2.1543032690
 H         -8.5849947265       -1.7290506853        0.3935062206
 H         -7.7560745836       -0.3127450504       -1.4522695036
 H         -6.3956645331        1.1355335433       -3.1275789343
 H         -4.7001974544        2.3938909306       -4.4107598822
 H         -2.3654659761        2.4590376232       -3.6613487820
 H         -1.6656749228        1.2787303175       -1.6151952567
 H         -3.9346720072       -2.7465212924       -0.8375280698
 H         -2.2994657523       -4.5224646162       -1.3137346236
 H          0.0881907029       -4.1333812808       -0.8919122004
 H          1.5841391595       -4.5837810613        0.5774643078
 H          3.6283379443       -5.9405252672        0.6352687774
 H          5.8278888740       -4.8454620114        0.3339686880
 H          5.9695629547       -2.4317149155        0.0432141795
 H          5.2199223134       -0.3712100661       -2.3199967616
 H          7.4716250924        0.6064968003       -2.6301287018
 H          8.7775891646        1.3351500935       -0.6695455693
 H          7.8403491696        1.0855017340        1.5981997433
 H          5.5888516204        0.1061180222        1.9009523107
  85
       -125.67464373
 C          3.3040691929        4.3024710487        1.2562946789
 C          2.3314798489        3.9159343851        0.1329955863
 C          1.0705141947        4.7723926732        0.2781651216
 C          2.9635680123        4.2258574537       -1.2311441996
 C          2.0442557246        2.4248602399        0.2242425880
 C          3.0985274344        1.5311406200        0.0805282002
 C          2.8891209562        0.1546096659        0.1265741714
 C          1.5932768907       -0.3567359126        0.3245096329
 C          0.5456548655        0.5569638021        0.5228094090
 C          0.7680474252        1.9291736702        0.4498351046
 N         -0.7358809100        0.0656908239        0.7363286066
 C         -1.6624559332        0.7771570285        1.5063452487
 C         -1.2437221601        1.5582373866        2.5826564605
 C         -2.1656099296        2.2394702499        3.3512253783
 C         -3.5178303726        2.1384707921        3.0687257780
 C         -3.9423557568        1.3286233240        2.0310585863
 C         -3.0274835521        0.6356184725        1.2540637320
 C         -3.4544568112       -0.2557120691        0.1131469555
 C         -4.8885253261       -0.7094020430        0.2372994894
 C         -5.4603325694       -1.4780567161        1.2294119083
 C         -6.8138866082       -1.7742651180        1.1434135013
 C         -7.5769559970       -1.3081355357        0.0830600929
 C         -7.0077410552       -0.5345504062       -0.9155904242
 C         -5.6577101550       -0.2351818498       -0.8340545135
 C         -4.7972492845        0.5420871632       -1.7111453548
 C         -5.0791950821        1.2197628663       -2.8853182668
 C         -4.0526791383        1.8951086933       -3.5250826368
 C         -2.7691368547        1.8890092357       -3.0026029985
 C         -2.4796535287        1.2105201427       -1.8259161581
 C         -3.4983029331        0.5409395225       -1.1828594253
 C         -2.4766577082       -1.4061252197       -0.0079931242
 C         -2.8859831150       -2.6385574693       -0.4798064668
 C         -1.9624811648       -3.6512383875       -0.6957998684
 C         -0.6273415903       -3.4258423251       -0.4445591314
 C         -0.1643708178       -2.2038841065        0.0531474494
 C         -1.1196855009       -1.1875015971        0.2645114659
 B          1.3238274797       -1.8472101704        0.2735324497
 C          2.5857799966       -2.7255655542        0.3297866668
 C          2.5894429041       -4.1040326809        0.5760460621
 C          3.7452312576       -4.8511827471        0.5810753771
 C          4.9599565816       -4.2247667897        0.3285424166
 C          5.0079252639       -2.8670044631        0.1134538329
 C          3.8372899668       -2.0953138577        0.1342218326
 N          3.9404701637       -0.7257593653       -0.0348186611
 C          5.2060348277       -0.1761639645       -0.3950913324
 C          5.5395718001       -0.0569109778       -1.7376899124
 C          6.7568258273        0.4933948117       -2.0987479068
 C          7.6402109847        0.9263917476       -1.1240350433
 C          7.3071998756        0.8074965306        0.2154839285
 C          6.0921556001        0.2575100504        0.5834983520
 H          4.2500150565        3.7764722199        1.1587815471
 H          2.8747623280        4.0569918784        2.2256231550
 H          3.5038345938        5.3716889393        1.2282544296
 H          1.3363374937        5.8245517748        0.1962780454
 H          0.3507606683        4.5464436422       -0.5052892761
 H          0.6003491716        4.6198880197        1.2470053575
 H          2.2875090037        3.9344715336       -2.0323424546
 H          3.9008684833        3.6927557458       -1.3658795941
 H          3.1629653356        5.2919903070       -1.3180664286
 H          4.0966912266        1.9071380985       -0.0752634536
 H         -0.0724968283        2.5950340416        0.5497875637
 H         -0.1913423236        1.6188374617        2.8160801205
 H         -1.8268587103        2.8452679527        4.1785693186
 H         -4.2402439540        2.6792138291        3.6608607254
 H         -4.9967698605        1.2352701035        1.8178998332
 H         -4.8662501466       -1.8418746089        2.0553804540
 H         -7.2785538601       -2.3747387343        1.9117407287
 H         -8.6285332699       -1.5516676868        0.0363326005
 H         -7.6050081357       -0.1731547155       -1.7395681265
 H         -6.0790493299        1.2236039160       -3.2934708134
 H         -4.2537734446        2.4325800935       -4.4404942898
 H         -1.9807771921        2.4200979274       -3.5160292982
 H         -1.4731779118        1.2148239525       -1.4368799251
 H         -3.9284128738       -2.8033850933       -0.7090408323
 H         -2.2948521902       -4.6045863095       -1.0797624629
 H          0.0904562508       -4.2025943479       -0.6591668991
 H          1.6475693488       -4.5870846103        0.7889878345
 H          3.7134499034       -5.9129916654        0.7765027140
 H          5.8750170369       -4.7992628898        0.3150239891
 H          5.9633641594       -2.3931269324       -0.0573584229
 H          4.8397040047       -0.3946934208       -2.4876497243
 H          7.0137721515        0.5880737266       -3.1432853290
 H          8.5880822828        1.3584161453       -1.4079535894
 H          7.9951452244        1.1458415596        0.9760520363
 H          5.8205663213        0.1608987924        1.6244462095
