  85
       -125.58920741
 C          1.7657995649        4.6186815729        1.1650887666
 C          2.2397160499        3.9245881171       -0.1205368235
 C          1.3978139540        4.4115418430       -1.3088657770
 C          3.6965199780        4.3228249133       -0.3704234284
 C          2.0614246478        2.4238427914        0.0324291845
 C          3.1235327080        1.5218167795       -0.0607474656
 C          2.9192029146        0.1427560961        0.0482170202
 C          1.6252963424       -0.3830563423        0.2187089594
 C          0.5817949027        0.5402105979        0.4000104708
 C          0.7900120822        1.9137453747        0.2732307471
 N         -0.7026651905        0.0536877858        0.6429803803
 C         -1.5804072225        0.7786238064        1.4244815617
 C         -1.1110095224        1.6231570588        2.4429403299
 C         -1.9942697559        2.3463199021        3.2109436172
 C         -3.3630076017        2.2395294340        2.9925787588
 C         -3.8371015036        1.3781901127        2.0151172561
 C         -2.9660061189        0.6358198287        1.2393547957
 C         -3.4516095963       -0.2670550980        0.1380115536
 C         -4.8605031598       -0.7544321685        0.3802802024
 C         -5.3213551965       -1.5489780245        1.4070645633
 C         -6.6720289788       -1.8721686744        1.4417057698
 C         -7.5388149357       -1.4017029319        0.4656157403
 C         -7.0804810373       -0.6010429614       -0.5675267727
 C         -5.7327751138       -0.2771335728       -0.6092640855
 C         -4.9703016404        0.5248323196       -1.5489821878
 C         -5.3610950073        1.2072336157       -2.6906505081
 C         -4.4033505625        1.9025166291       -3.4101283206
 C         -3.0778735764        1.9136843516       -3.0030101396
 C         -2.6779286341        1.2292456501       -1.8613235530
 C         -3.6284473383        0.5423527266       -1.1404381996
 C         -2.4677914870       -1.3893885937       -0.0902824507
 C         -2.8989255134       -2.6002415981       -0.6150438959
 C         -1.9725424678       -3.5912744060       -0.9138883153
 C         -0.6292891955       -3.3826350741       -0.6895265683
 C         -0.1368158195       -2.1895146711       -0.1387812991
 C         -1.1043530830       -1.1772506910        0.1310203078
 B          1.3457804180       -1.8661537492        0.1060224037
 C          2.6006711422       -2.7479020680        0.1136261131
 C          2.6029744882       -4.1460278383        0.2426885783
 C          3.7635268406       -4.8887345747        0.2953029091
 C          4.9956597257       -4.2497658490        0.2369752570
 C          5.0467129659       -2.8711635669        0.1321857155
 C          3.8752409169       -2.1125647285        0.0603403437
 N          3.9863598923       -0.7311579916       -0.0401811768
 C          5.2850781892       -0.1716744392       -0.1815351308
 C          5.9356087251       -0.2344414611       -1.4095212682
 C          7.1923883101        0.3240311824       -1.5526487080
 C          7.8055078446        0.9473942486       -0.4772400772
 C          7.1580307522        1.0104950835        0.7465895027
 C          5.9013531743        0.4540635186        0.8976490068
 H          2.3465906053        4.2690891572        2.0163479408
 H          0.7165117814        4.4155998388        1.3603562598
 H          1.8942358889        5.6955509612        1.0798948311
 H          1.7060862684        3.9035005300       -2.2202802776
 H          0.3407564230        4.2174144610       -1.1503129497
 H          1.5292967810        5.4821967724       -1.4489280596
 H          4.3337207810        4.0167970202        0.4560633168
 H          3.7649653585        5.4045250064       -0.4648247201
 H          4.0706001653        3.8810717432       -1.2910718088
 H          4.1155377130        1.8893151942       -0.2536141874
 H         -0.0596752324        2.5770051812        0.3228703225
 H         -0.0504209650        1.6779469602        2.6343020871
 H         -1.6199265259        2.9905906528        3.9924568067
 H         -4.0551767984        2.8133812626        3.5886138496
 H         -4.8997861257        1.2843531125        1.8516047586
 H         -4.6458882213       -1.9148788335        2.1668409321
 H         -7.0515537613       -2.4961476827        2.2372669642
 H         -8.5854721331       -1.6648990133        0.5132454909
 H         -7.7594165493       -0.2370904407       -1.3242893816
 H         -6.3915816568        1.1971363325       -3.0132384063
 H         -4.6906677078        2.4414930614       -4.3012204115
 H         -2.3455308870        2.4591113330       -3.5803147965
 H         -1.6413001224        1.2381585192       -1.5606607116
 H         -3.9483832658       -2.7588420593       -0.8054041896
 H         -2.3140092777       -4.5283519002       -1.3304633474
 H          0.0745628779       -4.1533549759       -0.9597543723
 H          1.6541823036       -4.6511288750        0.3312781852
 H          3.7179255245       -5.9639863726        0.3942929097
 H          5.9126065166       -4.8174449939        0.2852836366
 H          6.0110176239       -2.3867774920        0.1117010874
 H          5.4485394998       -0.7243701124       -2.2396311804
 H          7.6937827405        0.2743205275       -2.5074700697
 H          8.7866447010        1.3819236740       -0.5920877407
 H          7.6348375841        1.4915675451        1.5874887221
 H          5.3878621554        0.4951329877        1.8472398375
  85
       -125.58912305
 C          2.9524411524        4.1882279593       -1.4775711665
 C          2.3401452907        3.9216407281       -0.0951450349
 C          3.3299777678        4.3489137411        0.9986396717
 C          1.0771362551        4.7759054776        0.0434195923
 C          2.0534266677        2.4372136104        0.0494823884
 C          3.1158425156        1.5283798694       -0.0425697374
 C          2.9128468985        0.1514613764        0.0543905018
 C          1.6150854631       -0.3706718058        0.2129662326
 C          0.5731290290        0.5543126934        0.3901952107
 C          0.7813587916        1.9326231925        0.2725629663
 N         -0.7131781352        0.0683102254        0.6265208950
 C         -1.5920647196        0.7905906757        1.4091236079
 C         -1.1238392488        1.6346790011        2.4289626565
 C         -2.0072395686        2.3564039714        3.1978574058
 C         -3.3760158971        2.2493412919        2.9796249630
 C         -3.8493071775        1.3870810532        2.0027193163
 C         -2.9779753242        0.6455145735        1.2264290382
 C         -3.4668025764       -0.2622840343        0.1312253056
 C         -4.8682426644       -0.7639322182        0.3887738168
 C         -5.3112161845       -1.5560381198        1.4252534631
 C         -6.6567386158       -1.8985794399        1.4708676490
 C         -7.5360001969       -1.4500386985        0.4956309284
 C         -7.0956460284       -0.6517529744       -0.5471902688
 C         -5.7532222364       -0.3079944260       -0.5995289172
 C         -5.0078613717        0.4966149674       -1.5507597555
 C         -5.4148258380        1.1629405992       -2.6961610472
 C         -4.4712198852        1.8658776263       -3.4268205028
 C         -3.1439913817        1.9005254522       -3.0267899555
 C         -2.7277976478        1.2321505635       -1.8814468395
 C         -3.6642720605        0.5375116693       -1.1498593589
 C         -2.4776372248       -1.3782552525       -0.1052619606
 C         -2.9070567549       -2.5882091051       -0.6343337451
 C         -1.9799443959       -3.5758281042       -0.9395298300
 C         -0.6367725864       -3.3658765723       -0.7138171641
 C         -0.1471606627       -2.1745666810       -0.1577807432
 C         -1.1143581341       -1.1632562516        0.1140064513
 B          1.3349681878       -1.8529552358        0.0939489981
 C          2.5870570094       -2.7372889524        0.1090156226
 C          2.5850332814       -4.1359182456        0.2365848025
 C          3.7430866843       -4.8814500217        0.2939190068
 C          4.9777026863       -4.2454856057        0.2431303583
 C          5.0330266816       -2.8670351747        0.1415810214
 C          3.8638773709       -2.1054168052        0.0644644545
 N          3.9785947735       -0.7243410260       -0.0317555784
 C          5.2775754287       -0.1660794841       -0.1731656902
 C          5.9288767672       -0.2338063520       -1.4004260108
 C          7.1841716275        0.3275441789       -1.5462154809
 C          7.7947368624        0.9595111428       -0.4742832086
 C          7.1468155512        1.0269004661        0.7490597244
 C          5.8918413099        0.4669439161        0.9029722588
 H          2.2656060921        3.8715515670       -2.2596227237
 H          3.8874742083        3.6501139233       -1.6065400050
 H          3.1507012242        5.2506048401       -1.6013674405
 H          2.9141642519        4.1431104921        1.9828283950
 H          4.2733841544        3.8176073683        0.9077884031
 H          3.5315362591        5.4153154607        0.9259344352
 H          0.3550387479        4.5354626613       -0.7331411187
 H          1.3380498440        5.8273884625       -0.0555883234
 H          0.6135956763        4.6344501622        1.0169054354
 H          4.1080423979        1.9051841833       -0.2263220046
 H         -0.0715690000        2.5889202033        0.3185518622
 H         -0.0633310559        1.6884507744        2.6212696264
 H         -1.6333906409        2.9999898472        3.9801891773
 H         -4.0684020499        2.8231380138        3.5754306584
 H         -4.9119894528        1.2914757912        1.8399857721
 H         -4.6259447968       -1.9051298240        2.1842255604
 H         -7.0224085121       -2.5208882946        2.2742687065
 H         -8.5782063417       -1.7290999519        0.5512579018
 H         -7.7841934836       -0.3053347684       -1.3035525653
 H         -6.4467172817        1.1347374967       -3.0131083532
 H         -4.7710026720        2.3918738112       -4.3215702435
 H         -2.4232951753        2.4517148259       -3.6131376851
 H         -1.6902441776        1.2594502920       -1.5845663966
 H         -3.9567880036       -2.7484317019       -0.8219717861
 H         -2.3200406397       -4.5117711452       -1.3597172308
 H          0.0685759221       -4.1346063982       -0.9859760073
 H          1.6343171750       -4.6385277181        0.3182419524
 H          3.6943450338       -5.9566011690        0.3917527846
 H          5.8924936995       -4.8158431744        0.2970129258
 H          5.9984742946       -2.3845425034        0.1286314685
 H          5.4428229970       -0.7286775576       -2.2281979231
 H          7.6852329748        0.2756928383       -2.5012250256
 H          8.7741174636        1.3974646534       -0.5915436144
 H          7.6214163300        1.5147681234        1.5872644239
 H          5.3774833013        0.5133323896        1.8516125265
  85
       -125.58903094
 C          1.7703545726        4.6054071231        1.2216419367
 C          2.2478047198        3.9277350258       -0.0713200654
 C          1.4137522078        4.4362452194       -1.2563843071
 C          3.7073005008        4.3232385029       -0.3094675817
 C          2.0626635203        2.4258535368        0.0594708838
 C          3.1235458858        1.5214764468       -0.0319541004
 C          2.9093534191        0.1416772567        0.0410013301
 C          1.6169385873       -0.3828883859        0.2216652344
 C          0.5759163806        0.5423100274        0.4084017075
 C          0.7877621446        1.9160314416        0.2802550336
 N         -0.7082249425        0.0596807655        0.6592672470
 C         -1.5856928667        0.7985071056        1.4286953161
 C         -1.1169356758        1.6527274923        2.4394087289
 C         -2.0001580120        2.3928285278        3.1910219880
 C         -3.3681536174        2.2937194177        2.9636857317
 C         -3.8420943003        1.4205979112        1.9964165328
 C         -2.9712157445        0.6605258510        1.2380076704
 C         -3.4536693087       -0.2624350117        0.1524338931
 C         -4.8703928032       -0.7305962624        0.3859420736
 C         -5.3569681867       -1.4847159666        1.4312265838
 C         -6.7103883834       -1.7980060070        1.4509382472
 C         -7.5548538539       -1.3582414012        0.4414322712
 C         -7.0709214643       -0.5981166574       -0.6103201826
 C         -5.7204188641       -0.2838360902       -0.6367893374
 C         -4.9354519639        0.4801763064       -1.5890484114
 C         -5.3000639266        1.1204440087       -2.7635015459
 C         -4.3252906925        1.7853593515       -3.4885454261
 C         -3.0086338990        1.8081672939       -3.0541987193
 C         -2.6347315346        1.1651549580       -1.8799481728
 C         -3.6021466376        0.5082238131       -1.1536643914
 C         -2.4762406345       -1.3984037733       -0.0354876117
 C         -2.9123574889       -2.6253723944       -0.5170166792
 C         -1.9886192377       -3.6265918970       -0.7885871219
 C         -0.6433384561       -3.4106382156       -0.5839212535
 C         -0.1458197286       -2.2012497691       -0.0743593028
 C         -1.1115818300       -1.1820670415        0.1749192257
 B          1.3395277321       -1.8687350593        0.1402077680
 C          2.5962006368       -2.7488464503        0.1241124540
 C          2.6076384471       -4.1460232681        0.2617495559
 C          3.7697859221       -4.8887553598        0.2392561735
 C          4.9937773905       -4.2526415417        0.0774870555
 C          5.0386314724       -2.8733396653       -0.0276946852
 C          3.8663439055       -2.1136000037        0.0058805220
 N          3.9722537010       -0.7324050071       -0.0736313991
 C          5.2719326241       -0.1634389659       -0.2032532143
 C          5.8121873011        0.0458326743       -1.4661436421
 C          7.0658174388        0.6179986674       -1.5913920337
 C          7.7812858944        0.9810179230       -0.4621301082
 C          7.2427572638        0.7708041827        0.7968988650
 C          5.9890311229        0.2011735991        0.9299559859
 H          2.3468707260        4.2427444692        2.0703850938
 H          0.7198686526        4.4015402754        1.4099895445
 H          1.9013556808        5.6829259830        1.1518304354
 H          1.5514692946        5.5080888260       -1.3794489595
 H          1.7239811283        3.9401909151       -2.1736873803
 H          0.3546485104        4.2455522702       -1.1062700271
 H          4.3393061294        4.0077453841        0.5174356085
 H          3.7797084535        5.4055276601       -0.3934360563
 H          4.0846469632        3.8886775249       -1.2322313088
 H          4.1218932537        1.8870483001       -0.1940272138
 H         -0.0611641541        2.5807637554        0.3226903552
 H         -0.0572508563        1.7017272267        2.6374578979
 H         -1.6266466320        3.0446123436        3.9667028880
 H         -4.0600205638        2.8819730239        3.5459696859
 H         -4.9043791356        1.3313119500        1.8278205835
 H         -4.6994872386       -1.8273455582        2.2171793326
 H         -7.1095618875       -2.3905887806        2.2607974511
 H         -8.6040248772       -1.6132519935        0.4777115841
 H         -7.7320630525       -0.2577341809       -1.3933544786
 H         -6.3236692519        1.1005982971       -3.1069017455
 H         -4.5918600445        2.2906742984       -4.4054552918
 H         -2.2622870284        2.3297617489       -3.6355855221
 H         -1.6041665886        1.1824187230       -1.5600005248
 H         -3.9629914899       -2.7892762412       -0.6955769953
 H         -2.3336550000       -4.5772307030       -1.1700471695
 H          0.0580096819       -4.1893326643       -0.8368187131
 H          1.6670984350       -4.6508102285        0.4159620072
 H          3.7308601659       -5.9633095880        0.3486044748
 H          5.9100420246       -4.8224612240        0.0442736007
 H          5.9974648459       -2.3897456653       -0.1373753114
 H          5.2436972368       -0.2419299463       -2.3382221652
 H          7.4834827684        0.7815423934       -2.5734560213
 H          8.7590903640        1.4267888485       -0.5630741168
 H          7.7997524033        1.0506765049        1.6783248612
 H          5.5570664566        0.0322980094        1.9053366706
