  85
  -125.036653812500       0.373147315188068      !
 C          1.7842441732        4.6087049927        1.1885495885
 C          2.2609730075        3.9195780338       -0.0986110489
 C          1.4300341962        4.4217787117       -1.2885432476
 C          3.7220623890        4.3083926408       -0.3379981736
 C          2.0706688958        2.4193649637        0.0434334248
 C          3.1286378835        1.5107921403       -0.0397824842
 C          2.9097587302        0.1323113052        0.0434594300
 C          1.6153874123       -0.3865563139        0.2265548759
 C          0.5772342614        0.5435001681        0.4049444070
 C          0.7938122574        1.9154890472        0.2665565146
 N         -0.7088074519        0.0670769779        0.6579288268
 C         -1.5847234881        0.8146813937        1.4206165790
 C         -1.1143257134        1.6750449029        2.4253393973
 C         -1.9959706366        2.4238068278        3.1701961207
 C         -3.3640171275        2.3275112053        2.9419587062
 C         -3.8397131820        1.4485968050        1.9808169998
 C         -2.9704704553        0.6798536136        1.2293025382
 C         -3.4547044917       -0.2497750922        0.1502304882
 C         -4.8732586072       -0.7114226682        0.3855860143
 C         -5.3635917741       -1.4559020086        1.4360124689
 C         -6.7180716756       -1.7645297427        1.4564708729
 C         -7.5598619138       -1.3296946704        0.4426046047
 C         -7.0721439890       -0.5792511880       -0.6143387303
 C         -5.7205703067       -0.2696749521       -0.6415655490
 C         -4.9319254085        0.4844160895       -1.5986816580
 C         -5.2929999081        1.1168898016       -2.7784388315
 C         -4.3151511934        1.7729941835       -3.5073577779
 C         -2.9989444173        1.7947455759       -3.0715952562
 C         -2.6285884849        1.1594948819       -1.8920083677
 C         -3.5990539689        0.5113594365       -1.1619016422
 C         -2.4808458929       -1.3903921834       -0.0278099941
 C         -2.9204773748       -2.6195514124       -0.5004746751
 C         -1.9997598058       -3.6258852791       -0.7632572114
 C         -0.6540113414       -3.4128470361       -0.5586105181
 C         -0.1530704140       -2.2012571114       -0.0577046165
 C         -1.1157250940       -1.1769914258        0.1825981630
 B          1.3331207296       -1.8720519272        0.1561223469
 C          2.5868701389       -2.7564347238        0.1482867256
 C          2.5934847889       -4.1525480919        0.2966159726
 C          3.7531750913       -4.8992909797        0.2812170209
 C          4.9794729156       -4.2685069938        0.1160796203
 C          5.0290515070       -2.8902068636        0.0004099708
 C          3.8592646779       -2.1263385056        0.0267480341
 N          3.9698743099       -0.7461519879       -0.0631926953
 C          5.2715968794       -0.1825192151       -0.1955782072
 C          5.8140515863        0.0152878977       -1.4593729711
 C          7.0697311157        0.5823070955       -1.5874657270
 C          7.7850593271        0.9515730137       -0.4601419851
 C          7.2443321178        0.7527885549        0.7998007445
 C          5.9885557309        0.1883647319        0.9356824940
 H          2.3585355343        4.2506304367        2.0407420945
 H          0.7328604863        4.4097792871        1.3771711350
 H          1.9189207628        5.6852167053        1.1106613457
 H          1.5714712847        5.4921856660       -1.4196314769
 H          1.7397006215        3.9176929685       -2.2016484182
 H          0.3701222962        4.2357626311       -1.1382650996
 H          4.3520262051        3.9971343874        0.4920619438
 H          3.7981789751        5.3897610323       -0.4301507830
 H          4.0990574999        3.8655331220       -1.2569522667
 H          4.1283912401        1.8717915972       -0.2034301517
 H         -0.0529427037        2.5833458445        0.3028745586
 H         -0.0547202538        1.7220341030        2.6242983100
 H         -1.6212129176        3.0802596134        3.9413252567
 H         -4.0546123387        2.9224993422        3.5188851758
 H         -4.9020880922        1.3615567332        1.8116152731
 H         -4.7081944670       -1.7946937632        2.2253618683
 H         -7.1201841852       -2.3495693427        2.2703504439
 H         -8.6099199634       -1.5809299870        0.4795550427
 H         -7.7312128857       -0.2426719721       -1.4007570410
 H         -6.3162555997        1.0978217444       -3.1229233887
 H         -4.5789407443        2.2721639296       -4.4284282172
 H         -2.2501698131        2.3093925875       -3.6560437884
 H         -1.5983538665        1.1757785347       -1.5709474443
 H         -3.9714384640       -2.7813217414       -0.6790557803
 H         -2.3475086217       -4.5782616886       -1.1378576922
 H          0.0450372755       -4.1957812190       -0.8046927735
 H          1.6510835726       -4.6530101751        0.4535379940
 H          3.7105360274       -5.9728419044        0.3987303269
 H          5.8938712899       -4.8416078418        0.0883394906
 H          5.9896222106       -2.4106571817       -0.1117972510
 H          5.2456451870       -0.2772453911       -2.3299174384
 H          7.4891099667        0.7369437707       -2.5702421165
 H          8.7644644681        1.3933046833       -0.5633005688
 H          7.8012062097        1.0375415498        1.6797387347
 H          5.5548678210        0.0283928039        1.9117991350
  85
  -125.036572470000       0.342371729331254      !
 C          2.9679256773        4.1667264351       -1.5070456989
 C          2.3530994942        3.9130955907       -0.1233054260
 C          3.3430128431        4.3457781845        0.9682773145
 C          1.0927318177        4.7725538077        0.0069448544
 C          2.0613433304        2.4308050753        0.0327128322
 C          3.1208843175        1.5178037060       -0.0508407003
 C          2.9132602834        0.1423668410        0.0567638338
 C          1.6136048845       -0.3742503634        0.2178742735
 C          0.5744738306        0.5555087055        0.3864992166
 C          0.7873613672        1.9321567464        0.2582187459
 N         -0.7137023140        0.0755990505        0.6250852437
 C         -1.5911559587        0.8069216923        1.4008687047
 C         -1.1213914114        1.6575235237        2.4145696824
 C         -2.0033441220        2.3881969229        3.1766444775
 C         -3.3722009471        2.2838836557        2.9575869767
 C         -3.8471423977        1.4154670640        1.9869556153
 C         -2.9773142340        0.6649337699        1.2176277409
 C         -3.4677987539       -0.2499053863        0.1290434012
 C         -4.8711838915       -0.7449158771        0.3888341361
 C         -5.3179958196       -1.5273385585        1.4310055253
 C         -6.6646876017       -1.8651087862        1.4776782183
 C         -7.5413023930       -1.4214324991        0.4978444334
 C         -7.0970819286       -0.6328718714       -0.5507204219
 C         -5.7534767013       -0.2939275750       -0.6041307961
 C         -5.0043406683        0.5006848602       -1.5607840688
 C         -5.4077430145        1.1592472107       -2.7119209942
 C         -4.4609612571        1.8532895162       -3.4469621361
 C         -3.1341076953        1.8867657802       -3.0455902683
 C         -2.7214827848        1.2261236246       -1.8944839766
 C         -3.6611069608        0.5403631884       -1.1585717584
 C         -2.4820133024       -1.3709408235       -0.0973912954
 C         -2.9147607582       -2.5836358726       -0.6173978036
 C         -1.9905246967       -3.5766650115       -0.9136309815
 C         -0.6469439731       -3.3693237614       -0.6879391375
 C         -0.1540979844       -2.1752552115       -0.1407474673
 C         -1.1183011364       -1.1586690264        0.1218412264
 B          1.3287736823       -1.8565062835        0.1102474625
 C          2.5779381469       -2.7447802810        0.1338480651
 C          2.5711768545       -4.1423416060        0.2724789368
 C          3.7267106709       -4.8911767743        0.3371319643
 C          4.9634646843       -4.2596727255        0.2828268585
 C          5.0234285289       -2.8822577003        0.1704400765
 C          3.8568753582       -2.1174568951        0.0858644038
 N          3.9762344532       -0.7375685292       -0.0211411531
 C          5.2772068693       -0.1846923642       -0.1653709356
 C          5.9297561417       -0.2642622855       -1.3912568729
 C          7.1870584135        0.2918108529       -1.5399439154
 C          7.7984040127        0.9302463714       -0.4722980973
 C          7.1492383452        1.0094366976        0.7496773962
 C          5.8922515041        0.4548207566        0.9064766043
 H          2.2809960281        3.8461143497       -2.2874087704
 H          3.9013441143        3.6245551843       -1.6306047893
 H          3.1698154321        5.2274362259       -1.6390020444
 H          2.9253453124        4.1491338640        1.9535529843
 H          4.2847810958        3.8106887824        0.8827909712
 H          3.5481528313        5.4109064063        0.8873825638
 H          0.3707832175        4.5283312191       -0.7685740954
 H          1.3572092304        5.8223616060       -0.1000608494
 H          0.6275612858        4.6403262980        0.9809502051
 H          4.1145339081        1.8898966564       -0.2363516718
 H         -0.0634652745        2.5915813000        0.2979660283
 H         -0.0609443829        1.7093500383        2.6077460619
 H         -1.6283275041        3.0367316034        3.9543167127
 H         -4.0634176542        2.8646395159        3.5479832707
 H         -4.9099361321        1.3220498519        1.8236801016
 H         -4.6347843438       -1.8726477697        2.1935566155
 H         -7.0333599042       -2.4798387185        2.2855296195
 H         -8.5844836893       -1.6966369947        0.5543993638
 H         -7.7835813493       -0.2902046902       -1.3106446572
 H         -6.4393399718        1.1319080497       -3.0299009456
 H         -4.7579435665        2.3731618471       -4.3462135314
 H         -2.4109050315        2.4309371080       -3.6353969153
 H         -1.6842026971        1.2523820586       -1.5965561493
 H         -3.9647854357       -2.7419075593       -0.8050497673
 H         -2.3331820350       -4.5147891175       -1.3268154355
 H          0.0562073788       -4.1424854230       -0.9531404214
 H          1.6187210404       -4.6411790259        0.3569445383
 H          3.6743277354       -5.9653545729        0.4434111771
 H          5.8763159175       -4.8325724233        0.3423436404
 H          5.9904673065       -2.4030404875        0.1548571399
 H          5.4430773879       -0.7640808271       -2.2156823289
 H          7.6890936831        0.2307624630       -2.4938977654
 H          8.7793549784        1.3640546282       -0.5918189805
 H          7.6244286920        1.5023719809        1.5845766771
 H          5.3769093975        0.5103995057        1.8540882995
  85
  -125.036397425900       0.284480955480678      !
 C          1.7798008799        4.6215615144        1.1318910750
 C          2.2529325696        3.9160816402       -0.1478121208
 C          1.4140762339        4.3967277291       -1.3408536780
 C          3.7113532245        4.3075486224       -0.3989621581
 C          2.0694555644        2.4171515478        0.0164064009
 C          3.1286601673        1.5109122451       -0.0685776045
 C          2.9196031590        0.1334125516        0.0506786486
 C          1.6237480793       -0.3867746717        0.2236101503
 C          0.5831157497        0.5413170731        0.3965766312
 C          0.7960629320        1.9131418445        0.2595526568
 N         -0.7032483021        0.0609411293        0.6416950383
 C         -1.5794991560        0.7947489757        1.4165614079
 C         -1.1085024125        1.6454828071        2.4291041939
 C         -1.9902612543        2.3774326334        3.1904799119
 C         -3.3590862905        2.2735270166        2.9712714518
 C         -3.8348841234        1.4063169333        1.9998474778
 C         -2.9653448527        0.6551414319        1.2308448605
 C         -3.4526430043       -0.2545121933        0.1358464125
 C         -4.8634417587       -0.7353339432        0.3801185961
 C         -5.3281644891       -1.5204650889        1.4123858623
 C         -6.6799488063       -1.8388880147        1.4478524029
 C         -7.5439968531       -1.3730230287        0.4671391709
 C         -7.0817642772       -0.5818182454       -0.5715358695
 C         -5.7329369437       -0.2627210196       -0.6141074127
 C         -4.9666737232        0.5294929308       -1.5590004944
 C         -5.3538280501        1.2044366269       -2.7063278550
 C         -4.3929133901        1.8910068286       -3.4299338164
 C         -3.0678928309        1.9008807862       -3.0212992674
 C         -2.6715938017        1.2238694629       -1.8739269205
 C         -3.6252564670        0.5456757983       -1.1489688098
 C         -2.4723014116       -1.3818245767       -0.0826618299
 C         -2.9068448174       -2.5952160329       -0.5986747402
 C         -1.9834159869       -3.5915809913       -0.8888050994
 C         -0.6397428903       -3.3856994341       -0.6644096635
 C         -0.1439506276       -2.1900451704       -0.1222034412
 C         -1.1084279967       -1.1725350936        0.1386725385
 B          1.3394227388       -1.8697530063        0.1219258849
 C          2.5913562669       -2.7555854575        0.1377989220
 C          2.5888435679       -4.1526829628        0.2775499222
 C          3.7468493010       -4.8988206423        0.3372542965
 C          4.9811746907       -4.2644176276        0.2755433474
 C          5.0369496011       -2.8868346817        0.1602787826
 C          3.8681001602       -2.1249162523        0.0812091417
 N          3.9839446926       -0.7446960408       -0.0297358335
 C          5.2846890085       -0.1906319795       -0.1737818024
 C          5.9364701355       -0.2649537662       -1.4004591297
 C          7.1952747458        0.2882253164       -1.5463218684
 C          7.8091870181        0.9177543758       -0.4749649324
 C          7.1604653840        0.9923680137        0.7475571278
 C          5.9017601299        0.4412902772        0.9013362118
 H          2.3584076855        4.2765617730        1.9865047973
 H          0.7296096904        4.4234698457        1.3274277557
 H          1.9119288743        5.6973146362        1.0386227016
 H          1.7217390734        3.8807069463       -2.2479811863
 H          0.3561889748        4.2073350830       -1.1821084856
 H          1.5492954021        5.4658367524       -1.4889375309
 H          4.3465442415        4.0057348039        0.4306154847
 H          3.7835177367        5.3882613396       -0.5015475931
 H          4.0850555760        3.8575242049       -1.3157499560
 H          4.1221143364        1.8736237260       -0.2630404101
 H         -0.0514665392        2.5795838265        0.3030850703
 H         -0.0479659403        1.6982078109        2.6213327260
 H         -1.6147036966        3.0264144642        3.9674996179
 H         -4.0500481678        2.8542200737        3.5620583889
 H         -4.8976800541        1.3147661971        1.8357633595
 H         -4.6548276606       -1.8827873022        2.1757594906
 H         -7.0625003652       -2.4554974715        2.2476983630
 H         -8.5915819195       -1.6323650819        0.5155053508
 H         -7.7585797103       -0.2214096641       -1.3318851557
 H         -6.3839573277        1.1952987492       -3.0300836467
 H         -4.6773691364        2.4241033807       -4.3254698824
 H         -2.3330477152        2.4394372913       -3.6018650437
 H         -1.6353005115        1.2316348242       -1.5720789943
 H         -3.9565979132       -2.7517773383       -0.7890945850
 H         -2.3275087884       -4.5306770472       -1.2986188519
 H          0.0618568989       -4.1608002456       -0.9278796658
 H          1.6382674174       -4.6539336633        0.3688434190
 H          3.6975447418       -5.9731261514        0.4444068172
 H          5.8961651671       -4.8347566656        0.3293070737
 H          6.0028878591       -2.4058288260        0.1372654917
 H          5.4487598915       -0.7595957607       -2.2273914093
 H          7.6976385803        0.2295449967       -2.5001240254
 H          8.7919036149        1.3481274965       -0.5919367479
 H          7.6378709045        1.4782707876        1.5853336068
 H          5.3872772037        0.4913299255        1.8499593329
