63
 energy: -106.192689486359 gnorm: 0.000046797361 xtb: 6.7.1 (edcfbbe)
C            7.35120917176139       -1.01478141751109       -1.42658262704226
C            7.07388191503237        0.00682250619985       -0.32360615524237
N            5.82808048555925        0.71572260951140       -0.52960595756276
C            5.92575297949720        1.96323588647084       -1.25697109362703
C            6.13886033148578        3.16200197781681       -0.33161974041889
C            4.64105142737556        0.21972766064491       -0.09920567929557
C            3.45177424527140        0.98592448132001       -0.15789806847136
C            2.24294908683430        0.46907015203717        0.21864429257520
C            2.11597101926797       -0.84647071455645        0.69545410676696
C            3.31679232996031       -1.55928156249077        0.88541295461677
C            4.53513624503010       -1.05744352649346        0.46695391038091
O            3.33808518609039       -2.77540637178069        1.47170937685462
C            2.24232938325255       -3.30645201211910        2.11574220283696
O            2.41493955206617       -4.30992212422147        2.74747031929651
C            0.97335336317068       -2.61341930479943        1.89477508760990
C           -0.20070757124477       -3.14790717218043        2.57753451372988
O           -0.24267633546387       -4.07713057179269        3.33086333584631
O           -1.37994597658245       -2.44917291641502        2.38108768541845
C           -1.51583826529803       -1.53546684166038        1.40267610482351
C           -2.80940682759141       -1.10396383037665        1.12034147772041
C           -3.03132435222346       -0.23685815829297        0.06396511999395
N           -4.33491591599011        0.21784721334762       -0.25775800092913
C           -5.25733207727396       -0.68404586492975       -0.79405089174899
C           -4.95320756776576       -2.04272014205755       -0.88628866123616
C           -5.85687890543100       -2.95348650702092       -1.40413935671888
C           -7.09850352772338       -2.53568180369733       -1.84375121279171
C           -7.40756484431392       -1.18874943964939       -1.79043779243859
C           -6.49677904389351       -0.27182631594731       -1.29135499432837
S           -6.96219387283202        1.43289073014492       -1.41157302467913
C           -5.80512271151353        2.18116976672846       -0.30322125615459
C           -6.08254113476722        3.47443617811168        0.10915897814216
C           -5.21415660421104        4.15103105766315        0.94663744940888
C           -4.07207380359284        3.50981670660317        1.38816504408838
C           -3.80224912159501        2.21170893450189        0.99337349958163
C           -4.65186898697428        1.52169012891491        0.12676468562129
C           -1.95795083779760        0.18165264465163       -0.72478411593953
C           -0.67665278939707       -0.21696145966509       -0.42285663042179
C           -0.41732918997116       -1.03796007640226        0.68144142957700
C            0.89799637833993       -1.48962545184253        1.08779445781173
H            8.29712654393001       -1.51538992548802       -1.23958514082391
H            6.56251433136334       -1.76098340117880       -1.46597512637341
H            7.40492624060752       -0.52363645748169       -2.39548209135954
H            7.05849034000962       -0.48416534496543        0.65156618322860
H            7.87854151790321        0.74597109970575       -0.30252713112332
H            5.02855527481531        2.10675936126060       -1.86285967942591
H            6.77136715834309        1.88419935278605       -1.94535642986858
H            7.05600688496746        3.04233243571648        0.23991550380203
H            5.31378699423328        3.25979845614601        0.36891232211790
H            6.21265200359649        4.07493173242531       -0.91634375317942
H            3.48376772467050        2.01334484616672       -0.47848652545327
H            1.37860410071418        1.11345743646387        0.20857974157724
H            5.38917654461325       -1.69435188970332        0.61567159646447
H           -3.62423294150093       -1.47423965236448        1.72230524830180
H           -3.98841748592579       -2.39740513072594       -0.56186719346213
H           -5.57924216688978       -3.99486859642905       -1.45887960532095
H           -7.81270449569296       -3.24067529678043       -2.23838139214625
H           -8.35612048769857       -0.82437124137274       -2.15444451510544
H           -6.98543676365216        3.94540925771100       -0.24836955692957
H           -5.43369891951468        5.16193887327036        1.25152332793476
H           -3.38474760967488        4.01251233545911        2.05138374728495
H           -2.91523794248316        1.72285165742080        1.36525269177489
H           -2.14815432543542        0.81322471115153       -1.57884041014387
H            0.13153264216209        0.06334133206505       -1.07797258541656
