63
 energy: -106.123798290957 gnorm: 0.000195539378 xtb: 6.7.1 (edcfbbe)
C            8.19418232169901       -1.28198499071627        1.60294048714226
C            7.85899691977222       -1.32053926713597        0.11031367786186
N            6.57304510143425       -1.92555966854172       -0.14830678551163
C            6.57909426438636       -3.35015077517571       -0.38141455978530
C            6.75908540070463       -3.69854505213308       -1.86104217158081
C            5.41500403642417       -1.19499380935064       -0.15366757416092
C            4.19803590570994       -1.73653872149398       -0.60776511479327
C            3.03384285567757       -1.00828084656696       -0.57669133765851
C            2.98832740234515        0.30782305151492       -0.07900029347821
C            4.22930302510350        0.87920507153699        0.28344495045981
C            5.39663562573806        0.14829949851160        0.26833492535997
O            4.33740852278433        2.16761511363002        0.70127136020953
C            3.30213905814875        3.07605512312245        0.54750228903204
O            3.56255510860069        4.22545816396613        0.80227016929569
C            2.02760265000329        2.54243513978570        0.13216005897166
C            0.95882440322510        3.47200817815614       -0.14882470264944
O            1.03744762616094        4.67336760162444       -0.20945629382161
O           -0.28858132751391        2.92824669423767       -0.40232965548088
C           -0.54897969488570        1.60539914216782       -0.22861747778953
C           -1.87158061603652        1.23260638666435       -0.31351527369887
C           -2.25429308826680       -0.11028950481413       -0.15713362228599
N           -3.58761134205414       -0.48727582573293       -0.24820691858634
C           -4.01544109098285       -1.80752578688034       -0.04556742552087
C           -3.43911805668667       -2.87307033043319       -0.73705612142229
C           -3.86889386322620       -4.16602369421058       -0.51452626814007
C           -4.89260888202254       -4.41985442514125        0.38762368133404
C           -5.51003553347761       -3.37000325938728        1.04030131243280
C           -5.08249330125839       -2.06981604343003        0.81753782073569
S           -5.89562449526281       -0.72648920631553        1.63185812199618
C           -5.75649345472556        0.44045058211588        0.30856938885006
C           -6.77885388620947        1.35006896046260        0.08579497978028
C           -6.69011568912009        2.24008120096900       -0.96770621391847
C           -5.59768846416084        2.19263288143139       -1.82166160968341
C           -4.57733648713276        1.28852129342035       -1.60149914926598
C           -4.62201405609468        0.42715620197451       -0.50561972734055
C           -1.26259798974999       -1.02804909700156        0.21895869891740
C            0.05595299297428       -0.65390148804520        0.29507652083151
C            0.47847364604259        0.65914879911012        0.00018114562537
C            1.82110122476136        1.11922203609159        0.01591579203234
H            9.16956393359458       -0.82699669565240        1.75131976671160
H            7.45181874864697       -0.70479650059996        2.14699153925959
H            8.21431455550854       -2.28803991313318        2.01568271252887
H            7.87842563897853       -0.31130106870064       -0.30514483443513
H            8.61786576972898       -1.90712535309343       -0.41471390230565
H            5.65248499798753       -3.78638242940113       -0.00237909245940
H            7.40411045391365       -3.78239212405154        0.19182771790782
H            7.70139139271081       -3.30389530418125       -2.23317422358794
H            5.95486254840366       -3.27341269224511       -2.45540150267898
H            6.76030306171222       -4.77743050839048       -1.99085183817176
H            4.15960495348593       -2.73290057926779       -1.01579184116355
H            2.13644614754180       -1.44181540621179       -0.98739877868850
H            6.28356141996055        0.65564636046417        0.60561928108563
H           -2.59492687832746        2.01360958352368       -0.47494520606582
H           -2.65751532216484       -2.66982535305198       -1.45314719032914
H           -3.40756415309921       -4.98015706999000       -1.05202108660160
H           -5.22092984202364       -5.43149492518607        0.56706994181313
H           -6.32422438218817       -3.54378804968677        1.72634810578635
H           -7.63376328275244        1.35030606768717        0.74381433915534
H           -7.48036194340315        2.95489936894658       -1.13445601666072
H           -5.54185875684192        2.86103747486619       -2.66669265044329
H           -3.73879347222517        1.23460457203563       -2.27836937274119
H           -1.53221236693832       -2.03611269683161        0.49146523902687
H            0.78266998879798       -1.36972882837132        0.64322216382938
