63
 energy: -106.130334670702 gnorm: 0.000110123475 xtb: 6.7.1 (edcfbbe)
C            8.13807325121403        0.81739054936924       -2.06195174735849
C            7.78246195766665        1.41213666929681       -0.69775394922687
N            6.47177086323117        2.02013570686665       -0.68923585465386
C            6.42526120873379        3.42648839919818       -1.01266579351232
C            6.57443772055594        4.31497883977466        0.22468560343307
C            5.34226130189358        1.30422277134463       -0.40185501887273
C            4.10023633855225        1.93293486747841       -0.18703112537105
C            2.96404947034990        1.20527450037650        0.06676612208668
C            2.97062842418915       -0.20230794708167        0.10909367730659
C            4.23850089339328       -0.82223457738649        0.00201039667863
C            5.37754482872486       -0.09690269020009       -0.27113720876505
O            4.39786661925113       -2.16189053433984        0.12222029774101
C            3.39140331934776       -2.97357040208006        0.63969385211771
O            3.70527956707196       -4.11356868152001        0.87509664071818
C            2.09639734688998       -2.36872392699482        0.79805493414439
C            1.06253306076511       -3.14089574557221        1.43652452143553
O            1.17198322490799       -4.21743953141538        1.96742852071213
O           -0.20612080365534       -2.57455332907802        1.46519057485119
C           -0.51527165935554       -1.46076635429622        0.75697857074099
C           -1.85541120144452       -1.13849701433009        0.66918538046631
C           -2.25255046103323       -0.01747763866770       -0.06029857753759
N           -3.64040895857795        0.32109553638928       -0.14168032650909
C           -4.14189241600237        1.18265136541092        0.81536394143207
C           -3.29845722710424        1.64935665696502        1.83293194666982
C           -3.75289182026225        2.51239581356320        2.80733184417529
C           -5.07075784185726        2.94527142576295        2.80557931564943
C           -5.92154102998440        2.49921046664524        1.81471088916067
C           -5.47006432324790        1.63026757057858        0.82973878241836
S           -6.65740552357425        1.15028697620640       -0.37952349667694
C           -5.74253744335514        0.00901375526998       -1.36138220889639
C           -6.44524605433887       -0.60977524862974       -2.38722448066414
C           -5.82086717928247       -1.51026490124800       -3.22615122612367
C           -4.47595778520763       -1.79011022314683       -3.03327916226025
C           -3.77288993892219       -1.18000903943433       -2.01628827920170
C           -4.38462211436932       -0.26526121387923       -1.14832594608319
C           -1.30647018097685        0.75043989030486       -0.72789398158012
C            0.03077250496304        0.43637947759194       -0.62796663987521
C            0.47575556514838       -0.64872638559527        0.15399242156561
C            1.83339198197139       -1.03354401988688        0.32553109466196
H            9.13124753012280        0.37841278073429       -2.02615493246640
H            7.42451714277658        0.04731427586067       -2.34133366974880
H            8.12699131665351        1.58827124392852       -2.82912095569171
H            7.83297226439099        0.64088099380858        0.07299511156637
H            8.51237770152710        2.18402911692654       -0.43919360585903
H            5.48912719548951        3.65248852454715       -1.52747373907399
H            7.24199849255032        3.63933580181295       -1.70811875155246
H            7.52477998053221        4.12512495480669        0.71761588132222
H            5.77758556554825        4.11758405434256        0.93663419991173
H            6.53724955879994        5.36200590425976       -0.06367296351075
H            4.02131089943788        3.00735089917914       -0.19188044982504
H            2.04804744855336        1.73019356136745        0.28429021029199
H            6.28673032072245       -0.66077021685092       -0.38615372762202
H           -2.58172329666536       -1.76328434836100        1.16386332467118
H           -2.27277481835580        1.31884655490222        1.85089786185596
H           -3.07249222377267        2.84719979435479        3.57474682839682
H           -5.43084173219053        3.61947891915527        3.56595331644631
H           -6.95261410108380        2.81704472002648        1.78581302428363
H           -7.48979927256003       -0.36850548393971       -2.51258680537068
H           -6.37504459166115       -1.98628074417468       -4.01901253936026
H           -3.96896204836219       -2.49050702101511       -3.67836717515362
H           -2.72915331584793       -1.41054134180384       -1.87924303292362
H           -1.62824581476473        1.58731805180326       -1.33016819206539
H            0.74880452871160        1.00008597526003       -1.20018658063058
