52
 energy: -81.713210477052 gnorm: 0.000062867659 xtb: 6.7.1 (edcfbbe)
C           -5.09406339792436        0.86101900868979        1.83506472108667
C           -3.72851492397006        0.47206781089156        1.26640484616603
C           -2.76333819855114        0.25111378942059        2.45148339381705
C           -3.15524195847964        1.53801384860329        0.35250593767648
C           -3.61997807020808        2.83936493945243        0.27359478079359
C           -3.04265326571410        3.75343482046819       -0.59580380449812
C           -1.99954069275325        3.36744707665748       -1.42306732402418
C           -1.51242413493794        2.07785205691256       -1.35919560474865
C           -2.06256247091178        1.17052173434968       -0.45195629034315
N           -1.62164100461229       -0.15578516113264       -0.39158605733064
C           -0.28921859367847       -0.51437063441820       -0.29898678404809
C            0.10697142874962       -1.85986553484817       -0.17549339254804
C            1.43211888086515       -2.20012097829169       -0.09352174479661
C            2.45088318038629       -1.21676614503689       -0.07254601030286
C            3.84006422421062       -1.57026872389687        0.02814922246062
O            4.23024308467367       -2.77849198838338        0.05643361854244
C            4.75709263961944       -0.45137259751050        0.06174449485946
C            6.14606590164482       -0.64851614333900        0.14551679667145
C            7.00976126521627        0.42395052278314        0.20468507917146
C            6.51853839361055        1.72098052106341        0.17970760951147
C            5.14836595055194        1.94175049231039        0.09465661202202
C            4.27644159155781        0.87001422423367        0.03310525676845
O            2.93947211613689        1.16506302324111       -0.05688474176395
C            2.04591905191391        0.13750738009647       -0.12547538503086
C            0.71794337184598        0.48236614204631       -0.20997717660860
C           -2.67463345116069       -1.07773417584112       -0.37960749555134
C           -2.67909787385337       -2.18928368781785       -1.22340986580214
C           -3.75029814392856       -3.05960400991549       -1.20950381344881
C           -4.82408522870898       -2.81931607336423       -0.36664888011884
C           -4.84274202665994       -1.68774041140982        0.43528368726038
C           -3.78565208863780       -0.79401798881877        0.43360389762177
H           -5.46102621553692        0.07756581790718        2.49228032841525
H           -5.81553348152430        1.02667407349102        1.03864095501590
H           -5.00567531066764        1.76519108495822        2.43092199178959
H           -1.76754994778358       -0.02674820767396        2.11620762495668
H           -2.68492056754557        1.16406493165914        3.03727153402781
H           -3.14265637391474       -0.54286847206214        3.09065752000670
H           -4.44337514789332        3.15927867738155        0.88997521153648
H           -3.42345884336213        4.76215653411763       -0.64117197734508
H           -1.57491177584245        4.06526447851473       -2.12839013210507
H           -0.73707937140391        1.75092990469726       -2.03500194960658
H           -0.63152712943646       -2.64157855446979       -0.10907517921214
H            1.73925128561659       -3.23018212169793       -0.00168590564311
H            6.50556582257136       -1.66667244261652        0.16558013242544
H            8.07362607736903        0.24912033935957        0.27054566303209
H            7.19282488649375        2.56206040312157        0.22424868072628
H            4.74266921951304        2.94144932401105        0.07278345114077
H            0.47123752574094        1.52958670231024       -0.16853168687350
H           -1.86386710509907       -2.33602872750614       -1.91520514334112
H           -3.75185443441715       -3.91650257806437       -1.86554652313691
H           -5.66033690151376       -3.50116294289964       -0.34864274632599
H           -5.70037052782574       -1.51111450227187        1.06264891658639
