52
 energy: -81.804515864750 gnorm: 0.000072272856 xtb: 6.7.1 (edcfbbe)
C           -4.94411616590879        0.84018751237736        1.93482060670856
C           -3.62093418086389        0.45617121373692        1.27179805828920
C           -2.58019727052145        0.21973324805869        2.38571049513460
C           -3.10816014909711        1.53438926416429        0.33139357883944
C           -3.60098349508380        2.82963027682954        0.27839918207292
C           -3.09147871758414        3.74828811113308       -0.62444590681314
C           -2.09789463484688        3.37600760168352       -1.51271781861162
C           -1.59803971467880        2.08701113693767       -1.48268569268124
C           -2.07826275939540        1.18098642743761       -0.54575344028581
N           -1.62066008289689       -0.15681344215968       -0.52212274919837
C           -0.30438088348288       -0.50322424947205       -0.37098462991238
C            0.08207311215088       -1.85327937686999       -0.21484372427270
C            1.39776947482653       -2.19334804708457       -0.06734101406353
C            2.41346265745946       -1.22609850973364       -0.04570705122714
C            3.81249272656788       -1.59499377909736        0.09852927868423
O            4.20328517982998       -2.76032960972682        0.17517531783237
C            4.73020605463871       -0.44656943073347        0.15050975818970
C            6.10782106849979       -0.63894429839045        0.29150887212882
C            6.96837137503255        0.43340500716317        0.34598925409337
C            6.46486427026883        1.72881257781656        0.26097147385864
C            5.11124603322663        1.94537400925311        0.12101071458942
C            4.23552353765052        0.85995809580797        0.06420912929419
O            2.91723816986961        1.14176963343190       -0.07781179782916
C            2.02580540838822        0.11879484421357       -0.13725980311714
C            0.69411087563971        0.47159076489803       -0.28936071023657
C           -2.68954887998341       -1.07984109260668       -0.45616844551205
C           -2.75231884166823       -2.16969787742606       -1.31517754203642
C           -3.83198980915296       -3.03186910028034       -1.25555828381176
C           -4.85698303977684       -2.78818259394470       -0.35857256006132
C           -4.81605356291631       -1.67294270699978        0.46196024579130
C           -3.73835382200880       -0.80098617803837        0.42584905694960
H           -5.26989737525366        0.04838995121957        2.60444372221022
H           -5.71746764692185        1.01811859198624        1.19099676488102
H           -4.81450764826749        1.73699098320046        2.53517373163760
H           -1.61025660749973       -0.05866105842222        1.98288133807218
H           -2.45798090514963        1.12666374427720        2.97417398342762
H           -2.91897661664901       -0.57935689304984        3.04181105911642
H           -4.39127193724045        3.13880080247029        0.94245496148594
H           -3.48465895113407        4.75380076341403       -0.64326457360656
H           -1.71922601870626        4.08157645028194       -2.23701057293139
H           -0.84832047495564        1.77428689599654       -2.19396393141987
H           -0.66793053714283       -2.62605591896609       -0.18623196739285
H            1.69326059214279       -3.22610007518187        0.04505752305281
H            6.46392209461427       -1.65683847736889        0.35561351173211
H            8.02971993360080        0.27191375406961        0.45475467482143
H            7.13799221757635        2.57149845750258        0.30426533469831
H            4.70219376058806        2.94123480291377        0.05258855679084
H            0.45708841328478        1.52193336585445       -0.31898118048262
H           -1.96574523566079       -2.32863659421331       -2.03760292127378
H           -3.87561381549252       -3.88343642085943       -1.91793281498149
H           -5.70177695599300       -3.45873565363770       -0.30729749253223
H           -5.63928775272540       -1.49281162665168        1.13346332523660
