  64
  -96.6740214349000       0.197510271588584      !
 C          8.5851458752       -0.0346875366       -0.2692816113
 C          7.8083046184        0.0811691810       -1.4098779170
 C          6.4286985611        0.0834335811       -1.3126726099
 C          5.8092331380       -0.0256770218       -0.0712369685
 C          4.3333820624       -0.0209831518        0.0214496641
 C          3.6067172971       -1.1284066075       -0.4377764626
 C          4.2532012080       -2.2909933840       -0.9340806753
 C          3.5390095506       -3.3663371692       -1.3643073043
 C          2.1307811507       -3.3499559428       -1.3152242082
 C          1.4728759814       -2.2583015161       -0.8388674364
 C          2.1784452468       -1.1106687491       -0.3904217169
 C          1.5117992581        0.0150326409        0.1141054375
 C          0.0341973012        0.0445463731        0.1093158769
 C         -0.6526842277        0.1401377584       -1.0979779586
 C         -2.0326371426        0.1445587538       -1.1271477552
 C         -2.7557330001        0.0586241462        0.0594439991
 N         -4.1565438694        0.0471054899        0.0290384326
 C         -4.9572700557        0.9398835633       -0.6539019778
 C         -4.6036866445        2.0715560167       -1.3750177628
 C         -5.6181744228        2.8147367428       -1.9471367811
 C         -6.9558821957        2.4527641812       -1.8029059188
 C         -7.3152966683        1.3420879302       -1.0661972000
 C         -6.3134775264        0.5788475500       -0.4812489942
 C         -6.3202948995       -0.5974504419        0.3422981356
 C         -7.3300217884       -1.4162211393        0.8305345849
 C         -6.9817896797       -2.5133850603        1.5924948027
 C         -5.6457807106       -2.8064296819        1.8576873318
 C         -4.6236068547       -2.0070321929        1.3834441945
 C         -4.9682948463       -0.8899519391        0.6359194850
 C         -2.0757031593       -0.0249200175        1.2711675272
 C         -0.6942199585       -0.0349265616        1.2919595776
 C          2.2382859945        1.1119062522        0.5970967040
 C          1.5935654717        2.2687027029        1.1091771670
 C          2.3093864104        3.3332888436        1.5627195851
 C          3.7178394162        3.3150959807        1.5162503695
 C          4.3742872111        2.2325272861        1.0177706406
 C          3.6674271580        1.0934216323        0.5499677353
 C          6.5965796828       -0.1399001815        1.0697397799
 C          7.9763431770       -0.1464037785        0.9695196862
 H          9.6623266258       -0.0384908258       -0.3459479195
 H          8.2783706789        0.1690431905       -2.3785856298
 H          5.8191619062        0.1746581625       -2.2006173433
 H          5.3325915399       -2.3100875555       -0.9547519451
 H          4.0452670635       -4.2446888261       -1.7367532535
 H          1.5792004444       -4.2162026376       -1.6499506373
 H          0.3943574840       -2.2541106447       -0.7852817390
 H         -0.0934549291        0.2037857637       -2.0201110160
 H         -2.5587386916        0.1963485475       -2.0685783946
 H         -3.5710508539        2.3693512107       -1.4790427544
 H         -5.3685327343        3.6977601711       -2.5167839608
 H         -7.7191534157        3.0580628191       -2.2687963612
 H         -8.3526273020        1.0703352043       -0.9412475763
 H         -8.3642864492       -1.1976731650        0.6115774782
 H         -7.7515556507       -3.1619764237        1.9831767065
 H         -5.4031467922       -3.6805339646        2.4438056133
 H         -3.5908231001       -2.2531597332        1.5793225196
 H         -2.6353250180       -0.0724992306        2.1933629395
 H         -0.1697882452       -0.1080277057        2.2337523781
 H          0.5140941662        2.2902122016        1.1291656290
 H          1.8041512294        4.2045894314        1.9529537436
 H          4.2700450117        4.1726392640        1.8715340466
 H          5.4528252964        2.2252564058        0.9667275537
 H          6.1193320674       -0.2301416576        2.0352523297
 H          8.5786195672       -0.2386947267        1.8614857376
  64
  -96.6739133803000       0.176169706284139      !
 C          8.5973245244       -0.0659423815        0.0162297358
 C          7.9070105487       -0.2254608624       -1.1736376982
 C          6.5238588222       -0.2128650476       -1.1815324317
 C          5.8145754718       -0.0353511666        0.0021138341
 C          4.3359875485       -0.0194733240       -0.0058966568
 C          3.6274952420       -1.2058008862       -0.2427447823
 C          4.2888514347       -2.4442820366       -0.4538590721
 C          3.5884943148       -3.5857486617       -0.6956037507
 C          2.1799262951       -3.5616729701       -0.7406200858
 C          1.5067255436       -2.3995582802       -0.5231829065
 C          2.1983029684       -1.1887480948       -0.2562199294
 C          1.5143789771        0.0095171757       -0.0168193913
 C          0.0344209209        0.0203161261       -0.0108834899
 C         -0.6767859754        0.4688021672       -1.1188604288
 C         -2.0580459125        0.4643869822       -1.1183989346
 C         -2.7545924329        0.0274087810        0.0050131069
 N         -4.1555047591        0.0247976164        0.0116237575
 C         -4.9682312127        1.0791313387       -0.3535018483
 C         -4.6262199335        2.3659958855       -0.7444288006
 C         -5.6507743015        3.2463404361       -1.0344124823
 C         -6.9873871375        2.8669146748       -0.9319444270
 C         -7.3344456758        1.5964016059       -0.5186722423
 C         -6.3221794737        0.6935517041       -0.2211482264
 C         -6.3157220852       -0.6648517988        0.2440460463
 C         -7.3195849635       -1.5769470580        0.5418161337
 C         -6.9608262531       -2.8435402577        0.9572723140
 C         -5.6207544266       -3.2099124703        1.0612708365
 C         -4.6043749053       -2.3204776178        0.7698595367
 C         -4.9581372773       -1.0375256956        0.3766599259
 C         -2.0475386668       -0.4100927429        1.1216875674
 C         -0.6666844518       -0.4217254746        1.1063244632
 C          2.2207039574        1.1943260955        0.2234265205
 C          1.5520925043        2.4205191820        0.4784636142
 C          2.2473996365        3.5690932829        0.6981753476
 C          3.6566884020        3.5627296892        0.6708734907
 C          4.3352994657        2.4060849242        0.4396254689
 C          3.6501403432        1.1816450453        0.2224386754
 C          6.5155436402        0.1266436052        1.1930007624
 C          7.8985668742        0.1087945276        1.1991246511
 H          9.6771414943       -0.0776932015        0.0217280395
 H          8.4477129803       -0.3606916418       -2.0990112716
 H          5.9824797988       -0.3351736533       -2.1089132532
 H          5.3677801418       -2.4646432550       -0.4165076979
 H          4.1063625545       -4.5198953476       -0.8558437139
 H          1.6413479242       -4.4752516978       -0.9454705158
 H          0.4272474386       -2.3782159473       -0.5528816547
 H         -0.1382005801        0.8089130437       -1.9914023175
 H         -2.6044479565        0.7851755424       -1.9925554268
 H         -3.5942037352        2.6761133270       -0.8095368089
 H         -5.4099364660        4.2523545633       -1.3448730589
 H         -7.7589491918        3.5831897536       -1.1719191745
 H         -8.3700683208        1.3067810629       -0.4234751011
 H         -8.3578139560       -1.2973364595        0.4451524000
 H         -7.7257048111       -3.5669873695        1.1970741510
 H         -5.3701255293       -4.2130342267        1.3734599558
 H         -3.5697278728       -2.6214178674        0.8364900280
 H         -2.5859978348       -0.7271524047        2.0020730942
 H         -0.1199149057       -0.7648990676        1.9725044904
 H          0.4721046866        2.4221481539        0.4951245583
 H          1.7261792217        4.4952008482        0.8913195452
 H          4.1925332725        4.4860556671        0.8349972592
 H          5.4147932617        2.4033947113        0.4144386291
 H          5.9674048467        0.2607504826        2.1147712179
 H          8.4328654278        0.2324086969        2.1298216647
  64
  -96.6738203784000       0.159657938110449      !
 C          8.5938105310       -0.0439803432        0.1469685701
 C          7.9359875231       -0.6896529641       -0.8866258410
 C          6.5537683410       -0.6849285562       -0.9413121449
 C          5.8129184047       -0.0289232996        0.0366053655
 C          4.3352423467       -0.0212912991       -0.0151229662
 C          3.6215532151       -1.1988747260        0.2486205560
 C          4.2755787193       -2.4154552898        0.5775024344
 C          3.5688118691       -3.5516701207        0.8254260873
 C          2.1604089507       -3.5431065750        0.7658790599
 C          1.4938462016       -2.3937798356        0.4735208774
 C          2.1926516231       -1.1857947382        0.2123321385
 C          1.5146434900        0.0057748717       -0.0706306448
 C          0.0337852217        0.0234693051       -0.0684624565
 C         -0.6845638497       -0.1964894875       -1.2385405906
 C         -2.0661676447       -0.1854958014       -1.2287482470
 C         -2.7538320489        0.0367798783       -0.0391926240
 N         -4.1550826487        0.0342422692       -0.0197325014
 C         -4.9561656147        1.0067334613        0.5433866425
 C         -4.6013555929        2.2120380823        1.1325271788
 C         -5.6160920115        3.0253461546        1.5990350436
 C         -6.9551835276        2.6600054135        1.4783005096
 C         -7.3154461201        1.4738540337        0.8709579647
 C         -6.3133457398        0.6392626259        0.3937976601
 C         -6.3205205881       -0.6238472172       -0.2891001060
 C         -7.3317269325       -1.4838496092       -0.6968264184
 C         -6.9842839053       -2.6626425764       -1.3255432777
 C         -5.6478115220       -2.9951310556       -1.5361271508
 C         -4.6241468394       -2.1562565116       -1.1395168813
 C         -4.9676143433       -0.9591616253       -0.5275699015
 C         -2.0393021551        0.2573553009        1.1349875418
 C         -0.6585721675        0.2550038561        1.1155516343
 C          2.2256885295        1.1810119328       -0.3390176258
 C          1.5613134690        2.4001216652       -0.6355062450
 C          2.2614078118        3.5334253200       -0.9118227970
 C          3.6710099223        3.5146042439       -0.9150360228
 C          4.3451930462        2.3676344546       -0.6288368596
 C          3.6548624693        1.1663248141       -0.3188185751
 C          6.4815132620        0.6201844709        1.0699315261
 C          7.8634814168        0.6098989053        1.1252529950
 H          9.6728384776       -0.0504568466        0.1901389950
 H          8.5016096533       -1.1998396876       -1.6526284613
 H          6.0380561715       -1.1862327432       -1.7480545374
 H          5.3539880935       -2.4221210840        0.6315297109
 H          4.0812552366       -4.4692567561        1.0745526375
 H          1.6169948776       -4.4561785928        0.9597908985
 H          0.4143837063       -2.3803322016        0.4351199771
 H         -0.1523887085       -0.3712704875       -2.1622926781
 H         -2.6197066822       -0.3374699244       -2.1432514213
 H         -3.5674161468        2.5115952188        1.2157635384
 H         -5.3656516797        3.9671018376        2.0647547702
 H         -7.7187054367        3.3219939004        1.8586760539
 H         -8.3535989833        1.1973117461        0.7647171189
 H         -8.3666118379       -1.2332859553       -0.5188696079
 H         -7.7551709442       -3.3444322857       -1.6523492535
 H         -5.4061336354       -3.9313518311       -2.0173649968
 H         -3.5913458667       -2.4310228739       -1.2927648923
 H         -2.5722059604        0.4147282288        2.0607286485
 H         -0.1049136233        0.4238103497        2.0276785191
 H          0.4810599143        2.4070330256       -0.6407627995
 H          1.7442390107        4.4545738670       -1.1369265424
 H          4.2106880367        4.4200056483       -1.1507918076
 H          5.4248957601        2.3529007483       -0.6392704127
 H          5.9087320809        1.1279382503        1.8329580900
 H          8.3719705260        1.1138071149        1.9342626170
  64
  -96.6735916441000       0.125334753222019      !
 C          8.5973034153       -0.0158414853        0.0225967004
 C          7.9107693610        0.3047620629       -1.1366702941
 C          6.5276640214        0.3052512815       -1.1475758695
 C          5.8137197926       -0.0194231496        0.0019450211
 C          4.3357439487       -0.0187406799       -0.0079043598
 C          3.6362054850       -1.2279432357        0.1126380853
 C          4.3100552555       -2.4743058520        0.2062204809
 C          3.6226977521       -3.6396916105        0.3508099064
 C          2.2151453260       -3.6306296279        0.4183374276
 C          1.5303674577       -2.4600028442        0.3079147358
 C          2.2066449382       -1.2246071556        0.1275588675
 C          1.5111400341       -0.0156750214       -0.0161188122
 C          0.0341664097       -0.0108843083       -0.0114409438
 C         -0.6821686034       -0.5905388104       -1.0547777011
 C         -2.0630274033       -0.5772363578       -1.0559766986
 C         -2.7569124852        0.0056313543        0.0008988255
 N         -4.1577666763        0.0157628444        0.0067261189
 C         -4.9558925741        1.1216388072        0.2186519580
 C         -4.5958689139        2.4468428759        0.4183151631
 C         -5.6080919370        3.3732884211        0.5792210511
 C         -6.9497818806        3.0002710898        0.5355969121
 C         -7.3145882306        1.6875595048        0.3135665357
 C         -6.3150292412        0.7377827577        0.1486498994
 C         -6.3268237260       -0.6739403761       -0.1135356022
 C         -7.3420426430       -1.6085226620       -0.2693481892
 C         -6.9990780638       -2.9263817199       -0.4961632483
 C         -5.6636063148       -3.3194471083       -0.5533716317
 C         -4.6361010370       -2.4083994521       -0.4014977535
 C         -4.9743323574       -1.0781044207       -0.1971736032
 C         -2.0470123263        0.5793464697        1.0521207452
 C         -0.6663705983        0.5763327680        1.0385925067
 C          2.2103992664        1.1910623839       -0.1609962994
 C          1.5374761791        2.4268534472       -0.3519765922
 C          2.2251157189        3.5954864387       -0.4656451930
 C          3.6321352201        3.6023065060       -0.3877588688
 C          4.3163515546        2.4365255079       -0.2312054848
 C          3.6397363595        1.1916830458       -0.1372985036
 C          6.5113257072       -0.3428730779        1.1617881724
 C          7.8944505049       -0.3387601791        1.1713704369
 H          9.6771648335       -0.0140516384        0.0307077325
 H          8.4545593629        0.5565051337       -2.0355157524
 H          5.9895032632        0.5521472801       -2.0517745289
 H          5.3885640527       -2.4812026121        0.1571494055
 H          4.1498793918       -4.5797623573        0.4198136702
 H          1.6857121724       -4.5621494088        0.5548717075
 H          0.4519348021       -2.4541059919        0.3597744031
 H         -0.1467825650       -1.0400149433       -1.8783637521
 H         -2.6119837051       -1.0049708708       -1.8814541771
 H         -3.5595435871        2.7490648451        0.4364005742
 H         -5.3533923804        4.4106874678        0.7386770625
 H         -7.7114583016        3.7542003414        0.6685898337
 H         -8.3542564840        1.4009114427        0.2636432517
 H         -8.3766684081       -1.3063293869       -0.2091027659
 H         -7.7731010437       -3.6685291132       -0.6226222301
 H         -5.4260137918       -4.3603591144       -0.7168108629
 H         -3.6045784102       -2.7260380863       -0.4303526254
 H         -2.5836176633        1.0136296588        1.8823065447
 H         -0.1182990799        1.0197876422        1.8572188668
 H          0.4593609826        2.4225553281       -0.4118910023
 H          1.6984322386        4.5268610092       -0.6128162275
 H          4.1616509614        4.5408691004       -0.4590693402
 H          5.3945964267        2.4420371423       -0.1740066020
 H          5.9605278010       -0.5912521726        2.0579579526
 H          8.4255393036       -0.5892649072        2.0780980796
  64
  -96.6735198258000       0.116162541364163      !
 C          8.5703442007        0.0760665493        0.3916939555
 C          8.0055981717       -0.5805833188       -0.6888027519
 C          6.6311488564       -0.6095684345       -0.8448322691
 C          5.8048993168        0.0221749324        0.0788444610
 C          4.3336437034       -0.0149664388       -0.0595851905
 C          3.6431938339       -1.2186315935        0.1444062462
 C          4.3169844227       -2.4313374202        0.4465574420
 C          3.6314842502       -3.5916236317        0.6359737683
 C          2.2246712552       -3.6118133911        0.5503766842
 C          1.5383517603       -2.4667756079        0.2889757956
 C          2.2152786290       -1.2367758445        0.0782415987
 C          1.5150290461       -0.0523795553       -0.1790874687
 C          0.0342801954       -0.0541239054       -0.1534457563
 C         -0.7129641864       -0.3233232489       -1.2944808017
 C         -2.0944394139       -0.3075818949       -1.2511252001
 C         -2.7513806633       -0.0308233615       -0.0559552589
 N         -4.1514795827        0.0015053641       -0.0006511564
 C         -4.9034148789        1.0258378700        0.5382872141
 C         -4.4908566854        2.2440294498        1.0593143667
 C         -5.4633186679        3.1129593017        1.5151025900
 C         -6.8168240585        2.7887722106        1.4501120380
 C         -7.2345205789        1.5888142389        0.9103917720
 C         -6.2756122362        0.6987277989        0.4445954474
 C         -6.3441327920       -0.5931359646       -0.1785575594
 C         -7.3945250006       -1.4357041381       -0.5174314084
 C         -7.1047235080       -2.6525465737       -1.1014170920
 C         -5.7868927104       -3.0386384518       -1.3364099583
 C         -4.7247400015       -2.2180276809       -1.0081746251
 C         -5.0104188305       -0.9847892560       -0.4400099272
 C         -2.0074108628        0.2254394856        1.0925776599
 C         -0.6281791144        0.2190783786        1.0391295413
 C          2.2042273983        1.1416201484       -0.4206712737
 C          1.5186376484        2.3467566822       -0.7259568193
 C          2.1983973053        3.4976512101       -0.9794727977
 C          3.6075393552        3.5130999348       -0.9426632057
 C          4.3012767612        2.3809724823       -0.6440622787
 C          3.6323339122        1.1600117242       -0.3654755240
 C          6.3811087846        0.6866828368        1.1576768903
 C          7.7548446306        0.7109397539        1.3137552595
 H          9.6430209868        0.0931455043        0.5153268025
 H          8.6380565563       -1.0746626028       -1.4119109205
 H          6.1894216399       -1.1193350759       -1.6893361092
 H          5.3937556248       -2.4179243766        0.5239396002
 H          4.1602645906       -4.5067792508        0.8583835545
 H          1.6985896304       -4.5429314892        0.7016201262
 H          0.4596098128       -2.4738449823        0.2330412783
 H         -0.2040104286       -0.5355485139       -2.2235048727
 H         -2.6705756834       -0.4944509628       -2.1450396626
 H         -3.4454239553        2.5108875509        1.0989286240
 H         -5.1674806000        4.0660533337        1.9281589595
 H         -7.5459638817        3.4937273074        1.8206105999
 H         -8.2841125153        1.3446675846        0.8457794172
 H         -8.4149449297       -1.1424903600       -0.3218207287
 H         -7.9071743320       -3.3217040078       -1.3738747717
 H         -5.5906899673       -4.0028335598       -1.7818079010
 H         -3.7063761573       -2.5333081648       -1.1790981017
 H         -2.5175832257        0.4177759747        2.0245042300
 H         -0.0516133518        0.4197650648        1.9303507936
 H          0.4391675232        2.3267876992       -0.7637507172
 H          1.6655757582        4.4063658123       -1.2181885291
 H          4.1313100714        4.4326733465       -1.1588116365
 H          5.3809611957        2.3920660924       -0.6255883134
 H          5.7415379097        1.1772123871        1.8777466621
 H          8.1903848797        1.2248095855        2.1583146098
  64
  -96.6734494546000       0.107826557609512      !
 C          8.5959428966       -0.0397999507        0.0130722058
 C          7.9042757738       -0.7604384604       -0.9460841781
 C          6.5209835800       -0.7575158995       -0.9540169082
 C          5.8135767142       -0.0276964968       -0.0041086923
 C          4.3346244624       -0.0214970612       -0.0085843265
 C          3.6314274110       -1.1626538605        0.4004383669
 C          4.3026935894       -2.3333151929        0.8420924866
 C          3.6115598772       -3.4437597046        1.2169713276
 C          2.2032163683       -3.4544359933        1.1667527580
 C          1.5214253726       -2.3466498197        0.7672863155
 C          2.2018896531       -1.1586798634        0.3906088174
 C          1.5110908709       -0.0036064900       -0.0027268369
 C          0.0336418307        0.0057714985        0.0015327924
 C         -0.6769411279        0.0631757926       -1.1940284345
 C         -2.0577535397        0.0722060222       -1.1947252328
 C         -2.7573120317        0.0171069586        0.0077014258
 N         -4.1583975716        0.0194077692        0.0088725270
 C         -4.9655779223        0.8539061148        0.7552171093
 C         -4.6161784098        1.8812926048        1.6200429142
 C         -5.6361371159        2.5885210540        2.2270539747
 C         -6.9748591519        2.2931148115        1.9786716701
 C         -7.3288047839        1.2873040691        1.1020133046
 C         -6.3214270517        0.5616795602        0.4799402090
 C         -6.3216503075       -0.5089370263       -0.4768901377
 C         -7.3290500977       -1.2283751250       -1.1057711505
 C         -6.9752265473       -2.2378160549       -1.9783549266
 C         -5.6368388694       -2.5432058312       -2.2158263760
 C         -4.6168648736       -1.8415258669       -1.6027500784
 C         -4.9659586187       -0.8101133305       -0.7425187913
 C         -2.0532370707       -0.0418771663        1.2071464273
 C         -0.6722296473       -0.0440818206        1.2001928043
 C          2.2146784258        1.1417454047       -0.4013378065
 C          1.5478969649        2.3380563488       -0.7759643856
 C          2.2421361226        3.4361283818       -1.1806946480
 C          3.6500498766        3.4067635780       -1.2385330551
 C          4.3284835641        2.2881984639       -0.8647160083
 C          3.6440789684        1.1273951191       -0.4172760735
 C          6.5156409563        0.6966586165        0.9537673814
 C          7.8986760304        0.6876172768        0.9631855268
 H          9.6758043020       -0.0451124002        0.0202274035
 H          8.4441235492       -1.3278477732       -1.6901151503
 H          5.9783998632       -1.3183957387       -1.7016551537
 H          5.3819001717       -2.3246040385        0.8770350068
 H          4.1358691594       -4.3265864919        1.5518462649
 H          1.6704046463       -4.3497135694        1.4514705038
 H          0.4423960743       -2.3572294951        0.7282294892
 H         -0.1370568408        0.1021733671       -2.1290569769
 H         -2.6024883460        0.1349929377       -2.1248728041
 H         -3.5820337207        2.1300340303        1.8056128775
 H         -5.3897268513        3.3915862861        2.9061276369
 H         -7.7426173054        2.8682938404        2.4742530980
 H         -8.3658772131        1.0684362072        0.8973354713
 H         -8.3661809297       -1.0023791983       -0.9090350301
 H         -7.7430878611       -2.8086306417       -2.4788210071
 H         -5.3907782266       -3.3489172611       -2.8917191081
 H         -3.5831079885       -2.0973886261       -1.7800852090
 H         -2.5941246196       -0.1006438221        2.1397399938
 H         -0.1286247572       -0.0877438140        2.1328331081
 H          0.4692450697        2.3628777437       -0.7312010123
 H          1.7196688692        4.3383503463       -1.4629020995
 H          4.1841436011        4.2817553365       -1.5784516402
 H          5.4073695656        2.2650911492       -0.9051762138
 H          5.9683808738        1.2622499401        1.6945310815
 H          8.4338197514        1.2501041714        1.7142551986
  64
  -96.6733986455000       0.102182257867911      !
 C          8.5965282644       -0.0337982407       -0.0006413667
 C          7.9042173421        0.1259552171       -1.1892434252
 C          6.5210135339        0.1273106163       -1.1929209849
 C          5.8139340599       -0.0265130823       -0.0048938408
 C          4.3348400799       -0.0201448255       -0.0072034089
 C          3.6334622768       -1.1204278447       -0.5185861005
 C          4.3071037039       -2.2664195343       -1.0174342551
 C          3.6178316980       -3.3374345805       -1.4960858237
 C          2.2086105605       -3.3341836298       -1.4930049118
 C          1.5248864221       -2.2595266172       -1.0142443612
 C          2.2038373046       -1.1146363943       -0.5199831618
 C          1.5112712631       -0.0059235945       -0.0129032441
 C          0.0337706128        0.0008848803       -0.0122692840
 C         -0.6766584110        0.0764977408       -1.2067877854
 C         -2.0577534861        0.0790555911       -1.2082483701
 C         -2.7574514431        0.0133382694       -0.0065685425
 N         -4.1584154958        0.0168551507       -0.0016427135
 C         -4.9679939641        0.9219388038       -0.6578981330
 C         -4.6215006018        2.0301512856       -1.4178410164
 C         -5.6434559861        2.7954505001       -1.9460179198
 C         -6.9813899752        2.4778353351       -1.7220094205
 C         -7.3324351724        1.3903838957       -0.9475386714
 C         -6.3229949979        0.6058192814       -0.4054519311
 C         -6.3203488301       -0.5530374525        0.4424010059
 C         -7.3261749848       -1.3274244380        1.0053716322
 C         -6.9701214580       -2.4160449398        1.7758296179
 C         -5.6310925646       -2.7456345861        1.9745438955
 C         -4.6127404380       -1.9910809329        1.4246507936
 C         -4.9638307647       -0.8807906703        0.6698899246
 C         -2.0531696967       -0.0573749558        1.1923216532
 C         -0.6724489315       -0.0674426584        1.1853348773
 C          2.2130073733        1.0956281205        0.4973430511
 C          1.5435776985        2.2465273669        0.9906934508
 C          2.2360320794        3.3131766382        1.4748038903
 C          3.6451757261        3.3021294082        1.4838659749
 C          4.3255946640        2.2253844345        1.0053380608
 C          3.6425532852        1.0870241628        0.5018236754
 C          6.5165898297       -0.1845374395        1.1852294892
 C          7.8997934043       -0.1902795241        1.1857899381
 H          9.6764041467       -0.0362786546        0.0010667650
 H          8.4434691456        0.2495160380       -2.1169325287
 H          5.9778115034        0.2533500388       -2.1185585181
 H          5.3867567750       -2.2748970825       -1.0025794484
 H          4.1442218831       -4.2025423110       -1.8715271520
 H          1.6767020542       -4.1975673976       -1.8648705463
 H          0.4452567626       -2.2664293792       -0.9964660306
 H         -0.1367164282        0.1312670977       -2.1410005168
 H         -2.6019883197        0.1176829008       -2.1399880855
 H         -3.5880752851        2.2954105407       -1.5829928558
 H         -5.3992967598        3.6613363336       -2.5436001063
 H         -7.7507903466        3.0995173767       -2.1550414617
 H         -8.3688496501        1.1529599031       -0.7604464068
 H         -8.3637375895       -1.0809573843        0.8379877394
 H         -7.7365288032       -3.0292927031        2.2256899001
 H         -5.3831557720       -3.6124115589        2.5692550915
 H         -3.5787919387       -2.2656945349        1.5699459894
 H         -2.5941412932       -0.0903230402        2.1261330064
 H         -0.1291032239       -0.1263745032        2.1173000390
 H          0.4642254406        2.2648147804        0.9677105398
 H          1.7112048320        4.1808486459        1.8468412028
 H          4.1787464194        4.1604522359        1.8647811669
 H          5.4053305085        2.2227200024        0.9959726901
 H          5.9699594990       -0.3078261426        2.1092991536
 H          8.4356390302       -0.3170574024        2.1151749487
  64
  -96.6715952316000       1.515597395322472E-002 !
 C          8.6003190862       -0.0223640146       -0.0846705829
 C          7.8967947925        0.9475935860       -0.7790954380
 C          6.5139105071        0.9576002840       -0.7506703727
 C          5.8170590852       -0.0070836238       -0.0293446791
 C          4.3395833865       -0.0070256205       -0.0052369323
 C          3.6344702757       -1.0498927332       -0.6226133764
 C          4.3042785779       -2.0866226185       -1.3247925223
 C          3.6177699994       -3.1200489207       -1.8830641923
 C          2.2170178179       -3.1914143155       -1.7511622574
 C          1.5354910238       -2.2012225332       -1.1130397632
 C          2.2062171967       -1.0751754409       -0.5660869793
 C          1.5115002748       -0.0126321368        0.0353568561
 C          0.0372003934       -0.0107891879        0.0377520346
 C         -0.6701170932       -0.0585359849       -1.1619638015
 C         -2.0501290175       -0.0725852183       -1.1726614564
 C         -2.7618314630       -0.0042506342        0.0229060376
 N         -4.1611307036        0.0053101739        0.0121983158
 C         -4.9562442608        0.7720680676       -0.8188367631
 C         -4.5970175189        1.7165680663       -1.7705953289
 C         -5.6079891055        2.3539241036       -2.4641321582
 C         -6.9500886600        2.0768785104       -2.2143751984
 C         -7.3155994314        1.1666094011       -1.2432389871
 C         -6.3166516670        0.5117161902       -0.5351469595
 C         -6.3350271196       -0.4576536478        0.5235943338
 C         -7.3585181444       -1.0942261905        1.2130066364
 C         -7.0274618221       -2.0144558024        2.1869835121
 C         -5.6954649709       -2.3186041716        2.4584450981
 C         -4.6603621946       -1.6986830811        1.7847973331
 C         -4.9848599051       -0.7451036311        0.8297729199
 C         -2.0624348282        0.0572245518        1.2258567440
 C         -0.6816749808        0.0374016942        1.2299962093
 C          2.2184736104        1.0507879224        0.6201082276
 C          1.5595460800        2.1725173321        1.1896268100
 C          2.2560601226        3.1682326899        1.8024364001
 C          3.6611688667        3.1077855489        1.8843037620
 C          4.3349386953        2.0758957504        1.3079592679
 C          3.6483637911        1.0321407763        0.6330486001
 C          6.5319603794       -0.9783266958        0.6655395581
 C          7.9147008901       -0.9838288000        0.6389576626
 H          9.6799472587       -0.0291985995       -0.1074661132
 H          8.4272463376        1.6991144684       -1.3454873328
 H          5.9627382853        1.7105483564       -1.2960445083
 H          5.3792667797       -2.0376986645       -1.4117629720
 H          4.1407921863       -3.8981896154       -2.4191400328
 H          1.6882855038       -4.0379562374       -2.1640583580
 H          0.4629584835       -2.2657570913       -1.0104993333
 H         -0.1268564794       -0.0854065499       -2.0953584783
 H         -2.5836210922       -0.1501056485       -2.1077059041
 H         -3.5626627470        1.9599461527       -1.9595738146
 H         -5.3504995888        3.0861953274       -3.2151500187
 H         -7.7102771047        2.5919203714       -2.7823832973
 H         -8.3551997323        0.9653031592       -1.0331545602
 H         -8.3902142018       -0.8716611453        0.9861810617
 H         -7.8073239175       -2.5162248158        2.7400770842
 H         -5.4655883734       -3.0587267775        3.2106656894
 H         -3.6341355593       -1.9625743700        1.9900978070
 H         -2.6054509026        0.1346414393        2.1554960259
 H         -0.1489265322        0.0589590389        2.1696411172
 H          0.4836592289        2.2291766993        1.1249784202
 H          1.7361479067        4.0114490608        2.2330501932
 H          4.1970131352        3.8925677023        2.3975579679
 H          5.4126059491        2.0335649650        1.3583476162
 H          5.9943520492       -1.7259329903        1.2313920366
 H          8.4589043069       -1.7412480941        1.1841210462
