  64
        -97.07238634
 C          8.5972637432        0.0189010349        0.0329614743
 C          7.9109049802        0.3158615322       -1.1326892963
 C          6.5278232499        0.3106310992       -1.1452240983
 C          5.8137441584        0.0038323127        0.0091128030
 C          4.3357906636       -0.0015647755       -0.0024807228
 C          3.6409109264       -1.2111880710        0.1389724431
 C          4.3195886706       -2.4529652917        0.2557491656
 C          3.6366858312       -3.6182981458        0.4204715280
 C          2.2290255669       -3.6136444459        0.4861742013
 C          1.5397415832       -2.4479366856        0.3539094150
 C          2.2113309433       -1.2132932128        0.1521541082
 C          1.5112092623       -0.0099274608       -0.0140618694
 C          0.0342235821       -0.0109517585       -0.0112032286
 C         -0.6785045331       -0.6121308057       -1.0447839796
 C         -2.0594027143       -0.6043666550       -1.0478416266
 C         -2.7569120901       -0.0053632150       -0.0024361073
 N         -4.1578016392       -0.0007229876        0.0015649814
 C         -4.9605766582        1.1055890381        0.1926281270
 C         -4.6060680125        2.4355965266        0.3688437784
 C         -5.6221621503        3.3607360941        0.5118716955
 C         -6.9623046404        2.9816395070        0.4733907443
 C         -7.3216177159        1.6637010565        0.2745812353
 C         -6.3180898443        0.7151115470        0.1279480430
 C         -6.3239508875       -0.7011339981       -0.1088150409
 C         -7.3352551494       -1.6424139575       -0.2489820431
 C         -6.9867770272       -2.9627585546       -0.4516527450
 C         -5.6496844821       -3.3514527899       -0.5002151604
 C         -4.6259955897       -2.4337252304       -0.3635484830
 C         -4.9697618970       -1.1013323190       -0.1835831786
 C         -2.0506049966        0.5899935536        1.0391278136
 C         -0.6699464219        0.5922507029        1.0272752919
 C          2.2058498465        1.1967923731       -0.1798021085
 C          1.5282619772        2.4262520401       -0.3937696582
 C          2.2113954722        3.5953887482       -0.5276342994
 C          3.6182787684        3.6092272356       -0.4482330607
 C          4.3069245671        2.4491917590       -0.2699329006
 C          3.6351426016        1.2035471666       -0.1544429050
 C          6.5111852739       -0.2959195050        1.1754038224
 C          7.8942698304       -0.2861114548        1.1865327698
 H          9.6770986047        0.0251488829        0.0423055271
 H          8.4548090197        0.5535696871       -2.0352791958
 H          5.9898118147        0.5390759495       -2.0543481258
 H          5.3981765873       -2.4564362778        0.2080750675
 H          4.1675107803       -4.5548631852        0.5069921040
 H          1.7031268706       -4.5446651861        0.6388212403
 H          0.4612303085       -2.4454149867        0.4043897272
 H         -0.1403129587       -1.0742030513       -1.8595232365
 H         -2.6056280865       -1.0490653228       -1.8661348747
 H         -3.5709745278        2.7422310254        0.3827054448
 H         -5.3717835607        4.4018437406        0.6529401051
 H         -7.7271344125        3.7347906601        0.5919072594
 H         -8.3600763320        1.3720519353        0.2286028094
 H         -8.3711471724       -1.3433203679       -0.1953956487
 H         -7.7576882804       -3.7101451912       -0.5656494816
 H         -5.4077563465       -4.3941784526       -0.6446255595
 H         -3.5931843982       -2.7477094580       -0.3854752394
 H         -2.5899637294        1.0369892466        1.8607376027
 H         -0.1246597369        1.0525403283        1.8384347239
 H          0.4502477540        2.4165717449       -0.4548615059
 H          1.6812004969        4.5218554032       -0.6921524370
 H          4.1441509081        4.5484628363       -0.5357934758
 H          5.3850670244        2.4600370485       -0.2115778152
 H          5.9602633598       -0.5303403573        2.0752497490
 H          8.4252205532       -0.5181471858        2.0982419879
