94
 energy: -139.236720421293 gnorm: 0.000057882122 xtb: 6.7.1 (edcfbbe)
C            6.21828976603550        0.26825543486265       -0.51262716717374
C            5.65391626231715       -1.04500067717509        0.06330521922205
C            6.79822249472428       -1.94058185406219        0.57617852462289
C            4.91480579448490       -1.76817891607386       -1.04371004459094
C            5.61108140525536       -2.15546886714845       -2.18166656717372
C            4.98846306742693       -2.77001036322001       -3.25172959923175
C            3.62178597712662       -2.98659809596129       -3.20406097709281
C            2.90724663695327       -2.61465952142678       -2.08597991500465
C            3.53854305749267       -2.02593445482670       -0.98339125662346
N            2.80133645110526       -1.70760395601509        0.14926429824353
C            1.38721318797848       -1.73157909720136        0.09382517107886
C            0.67345856626341       -2.93092923028361        0.03201853653766
C           -0.70064929873147       -2.92378846864292       -0.08073468582343
C           -1.40335645205512       -1.71713432910757       -0.12407324236938
N           -2.81729358398836       -1.67935436002468       -0.17825276057077
C           -3.55639883455844       -2.00636950029720        0.95068394232857
C           -2.92937636532368       -2.61522393421158        2.04474474799931
C           -3.64616301761261       -2.99577479583472        3.15848481614073
C           -5.01088870655466       -2.76811719495365        3.21023818840408
C           -5.62900706038074       -2.13399575780696        2.14902823144745
C           -4.93032161624106       -1.73746712229635        1.01573543534081
C           -5.66396200002678       -0.99321324062525       -0.08092250861071
C           -6.81657153947423       -1.87170782594263       -0.60462123231543
C           -6.21635535997838        0.31721629150045        0.51284511482280
C           -4.75059262400595       -0.65768711376679       -1.24032555375576
C           -5.26152976324058        0.01436894196340       -2.34308138194434
C           -4.48412411705286        0.30985864276035       -3.44756656871991
C           -3.16099242663040       -0.10024812868312       -3.47525442351062
C           -2.62932501918907       -0.76587591694834       -2.39310715058962
C           -3.39884710619299       -1.02380128384486       -1.25076837160665
C           -0.71702465174377       -0.48996355114948       -0.06264368856819
N           -1.35883810786572        0.67704741923894       -0.07657341759721
C           -0.69384136752888        1.83449620475549        0.00524974266466
C           -1.51429122555717        3.04255814480745        0.08986888125428
C           -2.68030739862616        3.12003061589425       -0.67308015906214
C           -3.49212795461900        4.23524976533468       -0.59907797835388
C           -3.16005330657559        5.28380514051355        0.24432605385820
C           -2.01673053430586        5.20316999617775        1.02464299268709
C           -1.19964429347452        4.09124614291318        0.95407867528812
C            0.70972868004714        1.82808516692073        0.02452710991510
C            1.54066774686507        3.03033498249449       -0.03747338398713
C            1.23556820153340        4.09763524665327       -0.88209493122029
C            2.06211963023749        5.20368744106791       -0.93149743487107
C            3.20540631773642        5.26012712230864       -0.14901488430583
C            3.52797210601456        4.19321399754137        0.67482636001531
C            2.70673266558206        3.08370055025716        0.72746141366155
N            1.36435402288925        0.66345033031929        0.08554544052179
C            0.71209862925105       -0.49736403330005        0.05189831945824
C            3.38791649871566       -1.07243829622541        1.23125402317580
C            2.62002433199201       -0.82466678875737        2.37695167026337
C            3.15632911196446       -0.17785635752309        3.46817429268000
C            4.48242626518351        0.22296378752312        3.44619752072706
C            5.25809842048689       -0.06368787291532        2.33816575526987
C            4.74254855503298       -0.71713802685163        1.22642758565934
H            5.40458790164356        0.88629544233980       -0.88839732282434
H            6.90398749824122        0.06781902783940       -1.33088164511671
H            6.75067031324485        0.82784345392047        0.25096783127663
H            7.48489222043535       -2.18955133490018       -0.22735783486130
H            6.39136271127176       -2.86558121058134        0.98110706220160
H            7.35904901168083       -1.43988269013337        1.35982919000588
H            6.67175462724201       -1.96733040497126       -2.24278839052921
H            5.56078142680416       -3.06136618986435       -4.11924685992154
H            3.10860088976884       -3.44253050165308       -4.03776824426560
H            1.84075936469730       -2.77277906540832       -2.06689298069542
H            1.21366795922249       -3.86450495363010        0.07762162491301
H           -1.24935824749173       -3.85160246996512       -0.14016502125991
H           -1.86433830764186       -2.78242132700500        2.02248719246625
H           -3.13621873503848       -3.46713864008512        3.98557596942268
H           -5.58503877085633       -3.06602094805565        4.07431528039513
H           -6.68795854872038       -1.93748297622631        2.21362862145407
H           -7.50429763555157       -2.12604216550249        0.19633018863791
H           -7.37415299937146       -1.35526097712857       -1.38032040541573
H           -6.41820650469053       -2.79438883811613       -1.02303602296911
H           -6.74455989543623        0.89135846895980       -0.24280641208772
H           -5.39698813448458        0.92321298924015        0.89582844334291
H           -6.90299982900940        0.11204708323653        1.32913590837384
H           -6.29636485007534        0.32021657228206       -2.34525130199616
H           -4.90958557352687        0.84280387441794       -4.28434330510412
H           -2.54350565316771        0.09629485464631       -4.33946530520705
H           -1.60222831039344       -1.09693511944433       -2.42566935281657
H           -2.93124023483529        2.29468250083407       -1.32334763358840
H           -4.38790414550455        4.28562748028979       -1.20105317490741
H           -3.79320188112664        6.15697033367869        0.30075892648011
H           -1.76305025016480        6.00959640937143        1.69745326533504
H           -0.31923036352309        4.02601475091888        1.57727545688753
H            0.35510015621759        4.05158033159388       -1.50690229105932
H            1.81579571524373        6.02445292741651       -1.58952439686673
H            3.84594694251770        6.12881070415625       -0.18874774442400
H            4.42366843093788        4.22482016378591        1.27818523324262
H            2.95023605336321        2.24419987000654        1.36221928391085
H            1.59052092437965       -1.14865283065785        2.40465216899328
H            2.54010325469053        0.01146517778862        4.33489617086564
H            4.91143156122884        0.74153615204807        4.29016404296643
H            6.29518464656223        0.23436475561118        2.34475312774321
