94
 energy: -139.286429215953 gnorm: 0.000051077978 xtb: 6.7.1 (edcfbbe)
C            6.46368734175043       -0.02323331448295       -0.42064831705299
C            5.72935904368595       -1.30365013200263        0.01959051397687
C            6.74430715310861       -2.38206078866649        0.44406607839246
C            4.92294501992619       -1.82242023568398       -1.15607614648471
C            5.57887977960461       -2.16011772468855       -2.33276750953822
C            4.90102981129021       -2.60142255244805       -3.45399566252188
C            3.52174384067322       -2.69452317431823       -3.41372897739230
C            2.84594745798357       -2.36877379614749       -2.25620349855428
C            3.53023767555429       -1.94883848051011       -1.11193060564389
N            2.82561362883736       -1.65245333621065        0.04836529049164
C            1.41215674667594       -1.66406969885001        0.02646223164358
C            0.69958124617061       -2.84045884674700        0.02314475003304
C           -0.69990749819136       -2.84030630851160       -0.01854595544871
C           -1.41229630352577       -1.66379063354386       -0.02396879110464
N           -2.82577449780205       -1.65243820739748       -0.04457813052705
C           -3.52906154787750       -1.94773462571641        1.11680107584117
C           -2.84317124701279       -2.36313519046436        2.26178153891534
C           -3.51757899092489       -2.68800555402901        3.42036311773399
C           -4.89708318495700       -2.59845591221473        3.46103735709325
C           -5.57658308162431       -2.16148085330163        2.33911382414652
C           -4.92206057997391       -1.82468208683323        1.16137797874773
C           -5.73034511894663       -1.31084979510057       -0.01516002810991
C           -6.74170126369234       -2.39356219635823       -0.43726523044749
C           -6.46892565435974       -0.03200971686110        0.42253263090390
C           -4.84913328983043       -0.98646549780703       -1.20609533219485
C           -5.42843327356456       -0.50891781334218       -2.37442076397846
C           -4.68285715842467       -0.22963118451112       -3.50503427590805
C           -3.31771890248596       -0.45272769760579       -3.48518842542283
C           -2.71821078632150       -0.92755435072307       -2.33738949974197
C           -3.46366277206986       -1.17422669925105       -1.18051348960532
C           -0.70954928085161       -0.43278983427844        0.00639655791110
N           -1.38084541681985        0.72781042911694        0.10698686148210
C           -0.70892021422084        1.85410572675946        0.10499584214783
C           -1.47619024889137        3.07802682637141        0.35776590658150
C           -2.74245505308426        3.21817357194310       -0.20664723228341
C           -3.48728933823133        4.35841310861425        0.02900899431050
C           -2.98348549072567        5.36164604028943        0.84160546447593
C           -1.73448814508672        5.21728821331699        1.42493774696988
C           -0.98084680957749        4.08338633512815        1.18614668617305
C            0.70977537893784        1.85361496789378       -0.11088633334405
C            1.47752625149756        3.07663015148080       -0.36665802061036
C            0.98296105798981        4.07971261276176       -1.19825219601270
C            1.73710116362389        5.21266792310428       -1.43995228224258
C            2.98580638535616        5.35834918382828       -0.85631991573331
C            3.48880262093714        4.35738183990544       -0.04043743084940
C            2.74347436936606        3.21806415159090        0.19812729789620
N            1.38132281460061        0.72711019779002       -0.11015894193454
C            0.70963313445130       -0.43302091285090       -0.00690521787438
C            3.46189233393406       -1.17073404872362        1.18373889576689
C            2.71526680576396       -0.92384755491038        2.33981935608525
C            3.31304557037631       -0.44561521865964        3.48710019346374
C            4.67765570800465       -0.21933437137735        3.50726477412332
C            5.42446323497355       -0.49876504151391        2.37749985742315
C            4.84688712178976       -0.97967215418780        1.20969619730139
H            5.74201878439522        0.72030945224080       -0.75443078405091
H            7.14605389917071       -0.23072085131286       -1.24004868070966
H            7.03661191086308        0.39656363670598        0.40132293524114
H            7.39726505464142       -2.64604080024253       -0.38293038478756
H            6.21875597346757       -3.27926225421164        0.76690229892237
H            7.36115968717448       -2.03112956855451        1.26646114876110
H            6.65346846436035       -2.07371873324660       -2.38315940220990
H            5.44344918057653       -2.85839384359383       -4.35125502097343
H            2.96648148364744       -3.01809866317943       -4.28198966380692
H            1.76870521973322       -2.43438685511869       -2.24107735544830
H            1.23060297709234       -3.78077663041528        0.03846263323645
H           -1.23116692516392       -3.78052577487849       -0.03172442110235
H           -1.76576949588864       -2.42595720325208        2.24634049066793
H           -2.96106360249873       -3.00814632273454        4.28909111013710
H           -5.43843413369880       -2.85492325307317        4.35908518510296
H           -6.65138612368295       -2.07794837001832        2.38973776429815
H           -7.39434841528624       -2.65722792801086        0.39008233775333
H           -7.35909283900440       -2.04682805177300       -1.26103189540320
H           -6.21316526967821       -3.29003086314464       -0.75726772429609
H           -7.04436755772143        0.38346718907770       -0.39986994919948
H           -5.74965844908200        0.71510124929005        0.75352449347291
H           -7.14962407088399       -0.23983472417824        1.24322823530686
H           -6.49533095197718       -0.34943914869815       -2.41012626462503
H           -5.16454263242445        0.14549964151187       -4.39535862552547
H           -2.71639720597733       -0.26368620490607       -4.36275278245009
H           -1.65415234925381       -1.11479053141548       -2.33776962892578
H           -3.12067922395300        2.42797727521625       -0.83774576116850
H           -4.46347056070865        4.46349709279454       -0.42085449423479
H           -3.56526274664856        6.25265185170247        1.02512846266254
H           -1.34529267419917        5.99070285154258        2.07040405392906
H           -0.01445468174915        3.96616372095199        1.65499292610373
H            0.01679134177988        3.96138809698584       -1.66729163253728
H            1.34855054456224        5.98425996341764       -2.08798267759923
H            3.56800259447993        6.24859717367950       -1.04217930355346
H            4.46473853305204        4.46349820919792        0.40971896465537
H            3.12107947076125        2.42963171114032        0.83179910147969
H            1.65164996180300       -1.11357156640374        2.33994847942433
H            2.71082348739480       -0.25643417406479        4.36401742917773
H            5.15797862216436        0.15854806429331        4.39716049238373
H            6.49094617056082       -0.33659060237681        2.41343910044676
