  94
       -139.23524010
 C          5.7786507240        0.6343375639       -0.5256806554
 C          5.5319172779       -0.7393646541        0.1246979577
 C          6.8535398354       -1.3375010005        0.6391177555
 C          4.9414569351       -1.6603011419       -0.9258498439
 C          5.7113172704       -2.0081629279       -2.0279654331
 C          5.2186686118       -2.7938510094       -3.0526039202
 C          3.9078348067       -3.2297146405       -2.9949125724
 C          3.1207616674       -2.8961196000       -1.9127967020
 C          3.6244081391       -2.1281874086       -0.8596697385
 N          2.8186393091       -1.8295445241        0.2341028593
 C          1.4150677689       -1.8952583048        0.1134358831
 C          0.7054878103       -3.0717902081        0.0643157645
 C         -0.6903597805       -3.0753106518       -0.0814661940
 C         -1.4053920955       -1.9021676789       -0.1276426900
 N         -2.8100420995       -1.8424649440       -0.2428087031
 C         -3.6060386866       -2.1356294705        0.8599247577
 C         -3.0904899499       -2.8930033400        1.9149791462
 C         -3.8668201725       -3.2203674786        3.0066703305
 C         -5.1790632761       -2.7897309205        3.0718547424
 C         -5.6839437263       -2.0157103952        2.0443595528
 C         -4.9244741302       -1.6730753850        0.9334145528
 C         -5.5289724155       -0.7651706816       -0.1202712394
 C         -6.8413814989       -1.3859519988       -0.6314141389
 C         -5.7961173252        0.6073370097        0.5245193339
 C         -4.5946071686       -0.5653403071       -1.2947162861
 C         -5.0087628872        0.1874482552       -2.3859921516
 C         -4.1987762817        0.3874275138       -3.4882016336
 C         -2.9470495409       -0.2022395953       -3.5241141420
 C         -2.5121092835       -0.9488946663       -2.4504734743
 C         -3.3085698656       -1.1068971233       -1.3117615734
 C         -0.7042884110       -0.6707694726       -0.0444674094
 N         -1.3824346780        0.4854374081        0.0087912750
 C         -0.7200500698        1.6158983907        0.0491775000
 C         -1.5339494544        2.8226965224        0.2217543175
 C         -2.7686196269        2.8919049803       -0.4215359147
 C         -3.5711805436        4.0054575726       -0.2636955122
 C         -3.1574814099        5.0521188608        0.5446503514
 C         -1.9407515543        4.9775316677        1.2038076336
 C         -1.1293477263        3.8697656711        1.0463350534
 C          0.7094839576        1.6202688465       -0.0561476325
 C          1.5151984788        2.8328183168       -0.2261134321
 C          1.1009104844        3.8817884912       -1.0434295268
 C          1.9048212902        4.9953334204       -1.1981238443
 C          3.1237682682        5.0738685481       -0.5436110018
 C          3.5472159749        4.0254245608        0.2572904345
 C          2.7519662831        2.9063541773        0.4126581160
 N          1.3789905027        0.4937027992       -0.0178126629
 C          0.7080179689       -0.6668586015        0.0328342027
 C          3.3101289615       -1.0968972853        1.3081604024
 C          2.5093059827       -0.9489307471        2.4450930015
 C          2.9373950592       -0.2060669634        3.5240502742
 C          4.1854588040        0.3915933934        3.4940469372
 C          4.9994660397        0.2024657623        2.3928662438
 C          4.5934861107       -0.5487976462        1.2975214796
 H          4.8338127872        1.0556050582       -0.8638011372
 H          6.4426646260        0.5435960365       -1.3813396680
 H          6.2265107142        1.3220452293        0.1869274513
 H          7.5734881352       -1.4484997997       -0.1661691072
 H          6.6703559570       -2.3180870496        1.0744436810
 H          7.2991157599       -0.7032301551        1.3997201211
 H          6.7253792917       -1.6460106947       -2.1015750833
 H          5.8471824089       -3.0491342495       -3.8919365169
 H          3.4935080960       -3.8299415155       -3.7914647261
 H          2.0947868991       -3.2264217627       -1.8919885503
 H          1.2282873614       -4.0139587861        0.1378957305
 H         -1.2088346630       -4.0199613205       -0.1533865210
 H         -2.0632083856       -3.2187345436        1.8886906501
 H         -3.4421457300       -3.8091540642        3.8060909425
 H         -5.7992015791       -3.0402967651        3.9187998581
 H         -6.6999998664       -1.6599370060        2.1215557404
 H         -7.5578707108       -1.5072860371        0.1755670414
 H         -7.2979929741       -0.7606323493       -1.3929961137
 H         -6.6425941444       -2.3643177111       -1.0649339172
 H         -6.2547438417        1.2854276192       -0.1903425899
 H         -4.8574181484        1.0440733985        0.8601785586
 H         -6.4582543687        0.5106237855        1.3808915353
 H         -5.9882420629        0.6414175847       -2.3774730488
 H         -4.5463081459        0.9872165090       -4.3156334471
 H         -2.3095815398       -0.0830120354       -4.3877240601
 H         -1.5391780463       -1.4162870076       -2.4870626078
 H         -3.0778516616        2.0673945665       -1.0459247927
 H         -4.5229886035        4.0565080029       -0.7716538688
 H         -3.7849444263        5.9224633602        0.6669937302
 H         -1.6234173368        5.7850567371        1.8468774267
 H         -0.1895826433        3.8060517759        1.5752343798
 H          0.1594934151        3.8153509084       -1.5689719970
 H          1.5793850368        5.8048603719       -1.8345690424
 H          3.7448445727        5.9491894698       -0.6629504439
 H          4.5006606632        4.0796407596        0.7617758676
 H          3.0682614753        2.0806345021        1.0318587138
 H          1.5388101551       -1.4217631903        2.4762037554
 H          2.2974937373       -0.0959954330        4.3870489806
 H          4.5272763928        0.9891529425        4.3253907363
 H          5.9755413213        0.6637290632        2.3887956659
