  49
        -89.59788747
 C          9.0000263277       -0.4853660555        0.0295957533
 O          7.9867125235       -1.4641990584        0.0341667555
 C          6.6911575042       -1.0650588337        0.0093175870
 C          5.7353852213       -2.0854870449        0.0329198953
 C          4.3927360104       -1.7944397618        0.0152185923
 C          3.9461519862       -0.4676926251       -0.0267198370
 C          2.5366462343       -0.1496059762       -0.0375278574
 C          1.4573805413       -0.9933393336       -0.0091422848
 C          0.2045876590       -0.3467708213       -0.0422490621
 C         -1.0608397479       -1.0852272198       -0.0333558448
 C         -2.0426561902       -0.8401678907       -0.9890088407
 C         -3.2203114614       -1.5596641228       -0.9807988144
 C         -3.4254266280       -2.5332234977       -0.0106567490
 C         -4.6890704523       -3.3397332706       -0.0162584767
 F         -5.7379468573       -2.6833809997       -0.5376162316
 F         -5.0667306482       -3.7409388265        1.2098039978
 F         -4.5676154715       -4.4729218239       -0.7473585499
 C         -2.4482827376       -2.7971370361        0.9398524478
 C         -1.2709814228       -2.0751083963        0.9229448588
 C          0.3255505833        1.0279594076       -0.0812211780
 C         -0.7017831902        2.0206856827       -0.0337048217
 N         -1.9872025166        1.7771178766        0.0464501893
 C         -2.5990483177        2.9961149856        0.0886426686
 C         -3.9499660882        3.3206916962        0.1718548542
 C         -4.2844371152        4.6574202532        0.1928226048
 C         -3.3134861230        5.6611248892        0.1333359605
 C         -1.9680171964        5.3636700258        0.0504469944
 C         -1.6226994024        4.0227124259        0.0289375890
 N         -0.4235010309        3.3681935008       -0.0486480680
 S          1.9983131423        1.5044850097       -0.0857870294
 C          4.9080183805        0.5418259824       -0.0540298840
 C          6.2586894850        0.2577402171       -0.0366983109
 H          9.9388239668       -1.0351874992        0.0678244107
 H          8.9712286131        0.1180079429       -0.8831248950
 H          8.9286736424        0.1699247844        0.9033987121
 H          6.0800126647       -3.1068167684        0.0663723898
 H          3.6799865877       -2.6032603725        0.0345092622
 H          1.5423008432       -2.0646595480        0.0126122051
 H         -1.8781763157       -0.0886853718       -1.7434894283
 H         -3.9829365550       -1.3673770803       -1.7198202282
 H         -2.6152765986       -3.5567453052        1.6887543307
 H         -0.5131866368       -2.2700914285        1.6666380009
 H         -4.6949249041        2.5433763279        0.2191558159
 H         -5.3236783244        4.9438892519        0.2569790164
 H         -3.6262362855        6.6945528001        0.1531040223
 H         -1.2185965663        6.1399307899        0.0052465366
 H          0.4919631689        3.7840132494       -0.0984767450
 H          4.5887495708        1.5739325255       -0.0887298926
 H          6.9641255076        1.0732464234       -0.0588309061
