  49
  -89.3381583402000       0.252693090565621      !
 C          8.7144102842       -1.9666238935        0.0958873420
 O          8.1218800434       -0.6967870187       -0.0536633175
 C          6.7697549071       -0.5974388030       -0.0234395973
 C          6.2473208099        0.6911054794       -0.1716279679
 C          4.8899753095        0.9008319143       -0.1572326858
 C          3.9951000924       -0.1631384190        0.0025020819
 C          2.5677334187        0.0634781013        0.0121213710
 C          1.5455571819       -0.8485878033       -0.0181906654
 C          0.2543992257       -0.2836078130        0.0213162588
 C         -0.9651572977       -1.0958821355        0.0153447932
 C         -1.1285260507       -2.0876813517       -0.9471837152
 C         -2.2665013223       -2.8719958536       -0.9649602841
 C         -3.2471759074       -2.6702699181       -0.0048905143
 C         -4.4979600295       -3.4966966372        0.0101119563
 F         -4.5340948122       -4.4406759395       -0.9433153692
 F         -5.6114905537       -2.7549781524       -0.1570119791
 F         -4.6698696778       -4.1461026612        1.1815697139
 C         -3.0884552780       -1.6929755218        0.9721625120
 C         -1.9515276800       -0.9124623935        0.9810168075
 C          0.2876473129        1.0958937634        0.0688061264
 C         -0.8041004748        2.0179434820        0.0316539926
 N         -2.0684114613        1.6879349613       -0.0707227775
 C         -2.7634332546        2.8618971769       -0.0889642411
 C         -4.1329222734        3.0932425447       -0.1812208682
 C         -4.5601888898        4.4032008614       -0.1705365690
 C         -3.6626805455        5.4701506710       -0.0707439558
 C         -2.3004585402        5.2654249846        0.0208574590
 C         -1.8619826699        3.9518795660        0.0098044398
 N         -0.6205289784        3.3805479603        0.0842691021
 S          1.9260260705        1.6792803587        0.0690831347
 C          4.5260044391       -1.4447005587        0.1537274493
 C          5.8894122505       -1.6635844588        0.1416334021
 H          8.4648123094       -2.4141799606        1.0630249612
 H          8.4164738407       -2.6456560394       -0.7091905759
 H          9.7884952697       -1.7965573620        0.0444658201
 H          6.9360866544        1.5112300314       -0.2979338597
 H          4.5038543862        1.9032421585       -0.2745289219
 H          1.7003432618       -1.9117845894       -0.0563831127
 H         -0.3676010476       -2.2336342923       -1.6994585298
 H         -2.3946272294       -3.6335352098       -1.7190683118
 H         -3.8564923162       -1.5522707378        1.7173262422
 H         -1.8224000130       -0.1594127089        1.7405675607
 H         -4.8210144968        2.2670733139       -0.2584029742
 H         -5.6162514221        4.6182026779       -0.2407169266
 H         -4.0469064285        6.4792736525       -0.0655574917
 H         -1.6083543714        6.0907124826        0.0972300847
 H          0.2626885673        3.8580756244        0.1576195273
 H          3.8666010537       -2.2869502252        0.2940424177
 H          6.2551147704       -2.6708811249        0.2640951402
  49
  -89.3379610931000       0.205090184722219      !
 C          8.7001110523       -1.9698050101        0.1246227404
 O          8.1079877889       -0.7006873567       -0.0305427746
 C          6.7558261569       -0.6013349908       -0.0063247414
 C          6.2344244170        0.6874543730       -0.1550538871
 C          4.8772576208        0.8980438822       -0.1418882773
 C          3.9813584247       -0.1650629550        0.0176717298
 C          2.5545976486        0.0649852391        0.0300526000
 C          1.5291224134       -0.8437228372        0.0237707306
 C          0.2395515681       -0.2740373660        0.0571429208
 C         -0.9799257456       -1.0864911968        0.0533382740
 C         -1.1317181217       -2.0863372606       -0.9039611385
 C         -2.2681653307       -2.8706895794       -0.9267704661
 C         -3.2626423424       -2.6600266315        0.0194625570
 C         -4.4817417614       -3.5325140448        0.0107753487
 F         -4.8585978198       -3.9001291682       -1.2267274606
 F         -5.5548627278       -2.9570887039        0.5755677511
 F         -4.2872082001       -4.6885264043        0.6881829903
 C         -3.1134216224       -1.6795075965        0.9925918020
 C         -1.9761423363       -0.8973396121        1.0066438919
 C          0.2771820733        1.1060749560        0.0758898379
 C         -0.8083869577        2.0348224071        0.0260767379
 N         -2.0793093858        1.7152363081        0.0032036336
 C         -2.7627887584        2.8943332561       -0.0644673946
 C         -4.1325470389        3.1370094691       -0.1108861317
 C         -4.5455892490        4.4501159480       -0.1744290626
 C         -3.6336140750        5.5092812377       -0.1921197243
 C         -2.2707706678        5.2933733277       -0.1454194634
 C         -1.8467767972        3.9766118621       -0.0809808688
 N         -0.6092796646        3.3955986960       -0.0212226386
 S          1.9178063864        1.6835641788        0.0561265031
 C          4.5111322409       -1.4475187268        0.1655653790
 C          5.8744116878       -1.6673765857        0.1544079947
 H          9.7742602608       -1.7995048307        0.0788845525
 H          8.4452785731       -2.4156391546        1.0911587276
 H          8.4071659598       -2.6506429954       -0.6807117146
 H          6.9240494942        1.5070402225       -0.2793395976
 H          4.4918780148        1.9006365100       -0.2593983609
 H          1.6796725436       -1.9080756019        0.0088889953
 H         -0.3619960209       -2.2379124880       -1.6459831655
 H         -2.3908016911       -3.6377345546       -1.6763239008
 H         -3.8884959984       -1.5296505991        1.7282156525
 H         -1.8562509414       -0.1384793037        1.7618071978
 H         -4.8319355255        2.3168467029       -0.0979235542
 H         -5.6013768307        4.6737643711       -0.2119340069
 H         -4.0066735382        6.5213280735       -0.2434200043
 H         -1.5674518674        6.1126797256       -0.1591565381
 H          0.2811513784        3.8653353541       -0.0197679663
 H          3.8512507826       -2.2900937678        0.3008348228
 H          6.2392815148       -2.6751624683        0.2753952158
  49
  -89.3379055187000       0.193376925168588      !
 C          8.6796554837       -1.9960210678       -0.1388541790
 O          8.0993535203       -0.7250711120        0.0435223385
 C          6.7478918356       -0.6146918374        0.0293146883
 C          6.2362368737        0.6723115225        0.2209892272
 C          4.8803212346        0.8921861830        0.2251347930
 C          3.9763132054       -0.1599694972        0.0412838327
 C          2.5505992832        0.0760456691        0.0489259151
 C          1.5239180253       -0.8309722419        0.0300634921
 C          0.2348149419       -0.2601828081        0.0598089878
 C         -0.9820620601       -1.0759821541        0.0538688479
 C         -1.1224862939       -2.0853700549       -0.8949758575
 C         -2.2512676065       -2.8811118303       -0.9142130366
 C         -3.2498684303       -2.6713573995        0.0272145936
 C         -4.4638310289       -3.5508697687        0.0367196651
 F         -4.7554580983       -4.0683455213       -1.1686820338
 F         -5.5733887478       -2.9187173909        0.4536142481
 F         -4.3175176362       -4.6133370373        0.8630831508
 C         -3.1132195350       -1.6790288736        0.9908213525
 C         -1.9837383098       -0.8860983253        1.0015231113
 C          0.2738963615        1.1198521920        0.0838177862
 C         -0.8110610442        2.0486835718        0.0244269049
 N         -2.0814053943        1.7277032384       -0.0079019630
 C         -2.7654026423        2.9056061367       -0.0883489261
 C         -4.1349131068        3.1463462500       -0.1491228340
 C         -4.5489484302        4.4584640284       -0.2251424299
 C         -3.6381227982        5.5184546873       -0.2412636413
 C         -2.2756348197        5.3044765075       -0.1801875352
 C         -1.8505427630        3.9887091147       -0.1033097740
 N         -0.6130708501        3.4093564759       -0.0285778929
 S          1.9157478931        1.6952803785        0.0831403171
 C          4.4966526986       -1.4402070721       -0.1528283861
 C          5.8582624721       -1.6691650662       -0.1599403784
 H          9.7551907919       -1.8382463969       -0.0809234563
 H          8.3733874195       -2.6934315521        0.6470443510
 H          8.4277222676       -2.4151642802       -1.1180887193
 H          6.9323577915        1.4831494169        0.3653333726
 H          4.5023675011        1.8931996590        0.3762180642
 H          1.6731326364       -1.8955884713        0.0281231872
 H         -0.3494650278       -2.2364194653       -1.6337346798
 H         -2.3633993789       -3.6558636833       -1.6574684280
 H         -3.8924976629       -1.5304054699        1.7223628187
 H         -1.8732324120       -0.1192433874        1.7497130547
 H         -4.8334531044        2.3254360676       -0.1377409260
 H         -5.6045735373        4.6806067683       -0.2741110056
 H         -4.0119650656        6.5295955882       -0.3029708266
 H         -1.5733458367        6.1244192758       -0.1933407343
 H          0.2769152210        3.8796713837       -0.0243772274
 H          3.8304178436       -2.2740061122       -0.3089933195
 H          6.2151326033       -2.6750597146       -0.3158414645
  49
  -89.3377886031000       0.170873203192210      !
 C          8.7073375589       -1.9653125658        0.0201485945
 O          8.1139687965       -0.6886770246        0.0790342400
 C          6.7615721155       -0.5931234454        0.0541140148
 C          6.2383780623        0.7018233276        0.1186333294
 C          4.8806845688        0.9084928788        0.1024721614
 C          3.9853375035       -0.1641804132        0.0224600304
 C          2.5581867913        0.0628202143        0.0134318528
 C          1.5336971108       -0.8472597869       -0.0033340308
 C          0.2430887349       -0.2795453563        0.0198552076
 C         -0.9747630965       -1.0942952422        0.0263530202
 C         -1.9665376661       -0.8953255979        0.9832812558
 C         -3.0979481707       -1.6842035723        0.9875611959
 C         -3.2462085460       -2.6844253833        0.0324443480
 C         -4.4863255967       -3.5261117485        0.0668288241
 F         -5.6137912706       -2.7941837029       -0.0280199539
 F         -4.6026698781       -4.2196729633        1.2205004691
 F         -4.5494534611       -4.4366149085       -0.9171945400
 C         -2.2603898588       -2.9007134053       -0.9193389824
 C         -1.1282602663       -2.1080705177       -0.9149529495
 C          0.2786558477        1.1006671862        0.0364575260
 C         -0.8079921380        2.0277227931       -0.0187793845
 N         -2.0777281539        1.7056245607       -0.0635265441
 C         -2.7629841340        2.8841577143       -0.1218843141
 C         -4.1326848799        3.1248793054       -0.1790916309
 C         -4.5479926621        4.4380618467       -0.2236845270
 C         -3.6384054884        5.4993451216       -0.2132274952
 C         -2.2757186050        5.2853728944       -0.1569995708
 C         -1.8494584946        3.9685493899       -0.1108565759
 N         -0.6114693434        3.3893303361       -0.0448602345
 S          1.9181662322        1.6804171537        0.0325545606
 C          4.5173717118       -1.4526274462       -0.0443792919
 C          5.8811386703       -1.6688331743       -0.0291684601
 H          8.4554124228       -2.4822611500       -0.9110688756
 H          9.7812618140       -1.7910791245        0.0557788410
 H          8.4127359621       -2.5843301001        0.8733319468
 H          6.9267993052        1.5293436915        0.1820262097
 H          4.4944701163        1.9162865924        0.1544612143
 H          1.6850178090       -1.9115924155       -0.0044928225
 H         -1.8462509704       -0.1240735326        1.7254615300
 H         -3.8701515955       -1.5314464764        1.7260119417
 H         -2.3796862971       -3.6804955973       -1.6559679736
 H         -0.3622280005       -2.2675243042       -1.6592654409
 H         -4.8303911750        2.3032853590       -0.1877303701
 H         -5.6039231402        4.6600341647       -0.2681092686
 H         -4.0133585877        6.5112746037       -0.2505337632
 H         -1.5739479414        6.1060235931       -0.1493833075
 H          0.2778084676        3.8607828493       -0.0278609317
 H          3.8590493088       -2.3045020732       -0.1108896873
 H          6.2473132528       -2.6820097810       -0.0825670768
  49
  -89.3369658779000       7.154439864544493E-002 !
 C          8.6990574594       -1.9549373392        0.2426986685
 O          8.1090315284       -0.7031238313       -0.0227211940
 C          6.7569488299       -0.5999410806       -0.0057598160
 C          6.2364949873        0.6683147898       -0.2804970073
 C          4.8793895131        0.8805469644       -0.2871223506
 C          3.9834023721       -0.1615025073       -0.0239931221
 C          2.5563134190        0.0668797744       -0.0366265209
 C          1.5334322009       -0.8439390430       -0.0068717554
 C          0.2421946631       -0.2782518398       -0.0505093214
 C         -0.9730253670       -1.0967353473       -0.0375921958
 C         -1.1196606185       -2.0875376308        0.9293558139
 C         -2.2485717310       -2.8836953950        0.9573804026
 C         -3.2368303407       -2.6974633291        0.0013017479
 C         -4.4814349407       -3.5332946919        0.0115669431
 F         -5.5689590989       -2.8375985988        0.4048959980
 F         -4.4085634387       -4.5960933340        0.8292831735
 F         -4.7865112641       -4.0220273748       -1.2072863634
 C         -3.0963315538       -1.7196159559       -0.9774528003
 C         -1.9680056732       -0.9258892632       -0.9962891305
 C          0.2765632402        1.1013727663       -0.0947731896
 C         -0.8097030135        2.0300397633       -0.0584291039
 N         -2.0811517241        1.7120164247       -0.0559769863
 C         -2.7642721082        2.8916963929        0.0061149844
 C         -4.1342241283        3.1363318434        0.0305277968
 C         -4.5463804571        4.4498342191        0.0922911475
 C         -3.6334639141        5.5075808757        0.1301063528
 C         -2.2704961081        5.2897397809        0.1054965028
 C         -1.8474595897        3.9726367337        0.0419168108
 N         -0.6099802651        3.3903292205       -0.0017755120
 S          1.9162789450        1.6827615535       -0.0969242413
 C          4.5120431523       -1.4228892880        0.2521563719
 C          5.8751096175       -1.6437646687        0.2627506866
 H          9.7732909533       -1.7932691489        0.1732096745
 H          8.4510716823       -2.3104542378        1.2477988231
 H          8.3973188491       -2.7050248931       -0.4951217703
 H          6.9266398937        1.4708252031       -0.4861224480
 H          4.4941359745        1.8664028316       -0.5043605466
 H          1.6879709153       -1.9077388650        0.0097733817
 H         -0.3517166124       -2.2237792159        1.6763253310
 H         -2.3626538026       -3.6455379711        1.7133985409
 H         -3.8696822356       -1.5899688664       -1.7190116980
 H         -1.8535040091       -0.1722978431       -1.7570894348
 H         -4.8346613312        2.3174926193        0.0032296941
 H         -5.6023518353        4.6748599235        0.1127783779
 H         -4.0059537351        6.5199035854        0.1799127525
 H         -1.5661281196        6.1077075347        0.1354826785
 H          0.2808389532        3.8588350776        0.0155053041
 H          3.8510047896       -2.2463088382        0.4727683494
 H          6.2393704774       -2.6341592961        0.4856618982
  49
  -89.3366796438000       5.284836467001904E-002 !
 C          9.0100997784       -0.1520054771        0.1786794179
 O          8.0326286324       -1.1655470452        0.2258329536
 C          6.7241235719       -0.8163228112        0.1606397836
 C          5.8053471146       -1.8681671236        0.2299566208
 C          4.4535530619       -1.6281102531        0.1774752087
 C          3.9603357315       -0.3232016295        0.0533614051
 C          2.5406584647       -0.0582306467        0.0053069526
 C          1.4920657840       -0.9380495487        0.0675825089
 C          0.2175363950       -0.3408650420       -0.0194945104
 C         -1.0205515714       -1.1235960864        0.0147657234
 C         -1.9955518777       -0.9695664460       -0.9665290959
 C         -3.1466049065       -1.7301960144       -0.9328578202
 C         -3.3317012948       -2.6538215900        0.0887687447
 C         -4.5653386588       -3.5052093374        0.1124935325
 F         -5.6288659696       -2.9185702316       -0.4597984766
 F         -4.9473741500       -3.8495639191        1.3543836720
 F         -4.3919280788       -4.6729550672       -0.5505853528
 C         -2.3606131450       -2.8271265744        1.0659491064
 C         -1.2098694514       -2.0644785726        1.0234451522
 C          0.2896629118        1.0329306349       -0.1357582658
 C         -0.7732600814        1.9883482988       -0.1592048321
 N         -2.0501983148        1.7026914319       -0.0825116178
 C         -2.7059912546        2.8988173312       -0.1186764403
 C         -4.0688205047        3.1777679341       -0.0724581777
 C         -4.4513472478        4.5003340938       -0.1328385860
 C         -3.5162453136        5.5340078452       -0.2368118261
 C         -2.1598393787        5.2819350436       -0.2843392040
 C         -1.7663139353        3.9555171106       -0.2241103882
 N         -0.5433312174        3.3421302368       -0.2477980729
 S          1.9441096567        1.5695400181       -0.1451611099
 C          4.8856509264        0.7177708927       -0.0189477659
 C          6.2452165778        0.4849331307        0.0328726361
 H          9.9673216364       -0.6639062972        0.2610804023
 H          8.9738582418        0.3969629612       -0.7675069680
 H          8.9016894317        0.5489049155        1.0123464495
 H          6.1858540523       -2.8725879375        0.3266770808
 H          3.7700842123       -2.4601526874        0.2336033569
 H          1.6150408673       -2.0025507033        0.1519989652
 H         -1.8464414001       -0.2567222717       -1.7606574300
 H         -3.9040561488       -1.6084338550       -1.6919135377
 H         -2.5118572315       -3.5484877619        1.8549414801
 H         -0.4572206900       -2.1888419757        1.7872542881
 H         -4.7860406562        2.3775699754        0.0093872944
 H         -5.5010742114        4.7516272087       -0.0992544295
 H         -3.8661613200        6.5546997284       -0.2806701823
 H         -1.4381556362        6.0813642809       -0.3639671290
 H          0.3572800168        3.7877817354       -0.3090990370
 H          4.5301157451        1.7338041362       -0.1171911514
 H          6.9211818230        1.3232153948       -0.0265751496
  49
  -89.3360383252000       2.681031588966140E-002 !
 C          9.0980865712       -0.1152370034        0.1832011791
 O          8.1373932298       -1.1434577543        0.1112463688
 C          6.8227967356       -0.8077726646        0.0899036475
 C          5.9197061242       -1.8724974992        0.0146775549
 C          4.5643860231       -1.6472928144       -0.0116850832
 C          4.0527962562       -0.3445068953        0.0359416096
 C          2.6303340909       -0.0926665940        0.0112696517
 C          1.5899327591       -0.9878895872        0.0317682062
 C          0.3167439324       -0.3920525764       -0.0024978411
 C         -0.9586012409       -1.1287172639        0.0121909668
 C         -1.5827181677       -1.4702385753       -1.1814581503
 C         -2.7838624829       -2.1516201261       -1.1712245743
 C         -3.3625048673       -2.5004979380        0.0419510377
 C         -4.6838692927       -3.2095075413        0.0604854839
 F         -5.7289409147       -2.3556147211        0.1029766743
 F         -4.8324282721       -4.0197689111        1.1240614480
 F         -4.8860750840       -3.9789128291       -1.0240675129
 C         -2.7460339289       -2.1655472864        1.2404315319
 C         -1.5442113323       -1.4857041046        1.2208155329
 C          0.3775350968        0.9830484589       -0.0500026468
 C         -0.7313323536        1.8808543556       -0.0804231609
 N         -1.9851346184        1.4984298870       -0.0597964359
 C         -2.7242679591        2.6460365673       -0.0961144030
 C         -4.1041245087        2.8271060588       -0.0928178595
 C         -4.5781085950        4.1206120672       -0.1341845213
 C         -3.7169039569        5.2203354702       -0.1778062804
 C         -2.3449869926        5.0659302302       -0.1815791565
 C         -1.8604849625        3.7695030170       -0.1409232408
 N         -0.5947513029        3.2470602920       -0.1294492700
 S          2.0226154097        1.5378263305       -0.0511737685
 C          4.9631227859        0.7097720289        0.1082597142
 C          6.3256746036        0.4919102401        0.1358613208
 H         10.0644748101       -0.6161599739        0.1854736215
 H          9.0378351059        0.5509997352       -0.6830757611
 H          8.9913933277        0.4694564872        1.1023999369
 H          6.3160442131       -2.8748030791       -0.0230224154
 H          3.8929877460       -2.4886503862       -0.0744015748
 H          1.7211319055       -2.0539110943        0.0749838474
 H         -1.1298088485       -1.1916064621       -2.1206102752
 H         -3.2726159408       -2.4148716030       -2.0969457099
 H         -3.2066395075       -2.4389714071        2.1776331802
 H         -1.0603524363       -1.2192793929        2.1481443422
 H         -4.7650171655        1.9762009469       -0.0586325310
 H         -5.6436954515        4.2961192868       -0.1326533708
 H         -4.1369224233        6.2146847806       -0.2085975423
 H         -1.6795500839        5.9157846190       -0.2146835219
 H          0.2737984408        3.7552465054       -0.1533457367
 H          4.5926755007        1.7244900461        0.1461482974
 H          6.9890480332        1.3401975469        0.1936443124
  49
  -89.3351213651000       1.016005938428704E-002 !
 C          8.6797079140       -1.9493182733        0.1630960649
 O          8.0866773502       -0.6791361398        0.0247766156
 C          6.7345166050       -0.5816210409        0.0402969232
 C          6.2121987800        0.7080910335       -0.1002531046
 C          4.8546781377        0.9168606605       -0.1012464660
 C          3.9591289501       -0.1499605697        0.0349812650
 C          2.5311895663        0.0816530765        0.0241657874
 C          1.5174872015       -0.8397280376       -0.0323259932
 C          0.2243310840       -0.2769888985       -0.0100149235
 C         -0.9785373165       -1.1109516466        0.0009469243
 C         -1.9890113573       -0.9035353985        0.9412685559
 C         -3.1077445324       -1.7125266431        0.9623482068
 C         -3.2240887327       -2.7482893729        0.0426992726
 C         -4.4578644510       -3.6006610205        0.0424339674
 F         -5.4494594157       -3.0517893723       -0.6945850961
 F         -4.9712939317       -3.7800833227        1.2701451417
 F         -4.2542400003       -4.8245566326       -0.4678774241
 C         -2.2228375466       -2.9736467362       -0.8934310537
 C         -1.1059004907       -2.1616167061       -0.9067883383
 C          0.2598762012        1.1039947618        0.0473028916
 C         -0.7922551878        2.0726491506        0.0001692091
 N         -0.6058154520        3.3417143338        0.2668284211
 C         -1.8165503367        3.9469531037        0.0936414490
 C         -2.1920509023        5.2779844007        0.2500715421
 C         -3.5085470523        5.6032548041        0.0041194517
 C         -4.4438308030        4.6430118354       -0.3890665683
 C         -4.0955359943        3.3166887962       -0.5511798721
 C         -2.7748809021        2.9817953518       -0.3057027887
 N         -2.0911860839        1.7960971105       -0.3580963076
 S          1.8846100560        1.6969141950        0.0846709762
 C          4.4898585242       -1.4319508059        0.1805926971
 C          5.8537423337       -1.6504082252        0.1840808128
 H          9.7538800758       -1.7775507660        0.1184855155
 H          8.4265944066       -2.4081111921        1.1241143100
 H          8.3867673472       -2.6205617890       -0.6504474181
 H          6.9025808470        1.5298357904       -0.2083598946
 H          4.4665248110        1.9185217933       -0.2130827993
 H          1.6751666399       -1.9024624374       -0.0673055102
 H         -1.8846961397       -0.1118717345        1.6676187380
 H         -3.8845300595       -1.5528172654        1.6942095813
 H         -2.3189695100       -3.7832538761       -1.6007384079
 H         -0.3269689731       -2.3318482861       -1.6344455023
 H         -1.4684977925        6.0161198860        0.5543571586
 H         -3.8320952323        6.6275367204        0.1166799640
 H         -5.4639702889        4.9471545649       -0.5698906507
 H         -4.8180039396        2.5742569219       -0.8556185780
 H         -2.4590063478        0.8980267835       -0.6203928918
 H          3.8306807873       -2.2773602934        0.3039131134
 H          6.2188168657       -2.6585248467        0.3028833577
  49
  -89.3349347698000       8.339557047462086E-003 !
 C          8.9923655712       -0.1178415184       -0.1054656567
 O          8.0236639185       -1.1363996322       -0.0008361806
 C          6.7119595894       -0.7939890873       -0.0014635696
 C          5.8031456801       -1.8514407483        0.1027527804
 C          4.4486646769       -1.6182665296        0.1100390058
 C          3.9441603353       -0.3159228303        0.0135418952
 C          2.5218519782       -0.0519425981        0.0177502453
 C          1.4860992128       -0.9465189611       -0.0607888837
 C          0.2067729776       -0.3538760129       -0.0120970631
 C         -1.0179484228       -1.1551149161       -0.0153066299
 C         -2.0211739333       -0.9354168571        0.9299224450
 C         -3.1677900034       -1.7056102770        0.9345858456
 C         -3.3181945321       -2.7148002177       -0.0077783360
 C         -4.5625073620       -3.5507945241       -0.0505599344
 F         -4.2980186385       -4.8678101894       -0.1172104197
 F         -5.3183755389       -3.2737706102       -1.1357603787
 F         -5.3613629730       -3.3772519209        1.0115256707
 C         -2.3208846201       -2.9574782555       -0.9456719277
 C         -1.1775249941       -2.1840570520       -0.9434716378
 C          0.2757810095        1.0234826850        0.0876170823
 C         -0.7522350934        2.0188509061        0.0762647671
 N         -0.5371634252        3.2712355450        0.3950906452
 C         -1.7327264792        3.9113552625        0.2424322497
 C         -2.0772581911        5.2436000256        0.4514937544
 C         -3.3845811139        5.6098901396        0.2145071220
 C         -4.3410848070        4.6882153652       -0.2198134184
 C         -4.0234480268        3.3617298217       -0.4347119598
 C         -2.7118494767        2.9860516042       -0.1994909273
 N         -2.0558673351        1.7880454642       -0.2978674189
 S          1.9142080335        1.5758114808        0.1337391225
 C          4.8593998890        0.7317018862       -0.0855151695
 C          6.2209808172        0.5059595248       -0.0947965524
 H          9.9547456812       -0.6261485350       -0.0867956720
 H          8.8927524797        0.4348099982       -1.0448380914
 H          8.9343744195        0.5786876714        0.7366705262
 H          6.1942489274       -2.8536452193        0.1798118760
 H          3.7727240205       -2.4535312379        0.2019001786
 H          1.6186410695       -2.0109800010       -0.1291050102
 H         -1.8909975612       -0.1626840981        1.6725714792
 H         -3.9393391837       -1.5313203743        1.6685897057
 H         -2.4461997429       -3.7495516517       -1.6682897478
 H         -0.4053557221       -2.3637266207       -1.6757719487
 H         -1.3376714714        5.9522402426        0.7869420483
 H         -3.6846722932        6.6358511035        0.3672723433
 H         -5.3530467590        5.0234346792       -0.3909102293
 H         -4.7621042456        2.6490581353       -0.7705881520
 H         -2.4413132260        0.9098737670       -0.5993353816
 H          4.4915550230        1.7447316089       -0.1601885598
 H          6.8891316555        1.3485220510       -0.1766820364
  49
  -89.3349261576000       8.263900714487312E-003 !
 C          9.0073300380       -0.1148359332        0.1632336026
 O          8.0429501167       -1.1268801454       -0.0174625914
 C          6.7302619967       -0.7888330503       -0.0056889970
 C          5.8256111372       -1.8392126100       -0.1882144099
 C          4.4704894297       -1.6097305262       -0.1923060194
 C          3.9602104710       -0.3180168355       -0.0140510759
 C          2.5375984512       -0.0570124193       -0.0134818993
 C          1.5025342993       -0.9509933899       -0.1122451079
 C          0.2231908910       -0.3601611860       -0.0547927603
 C         -1.0045499140       -1.1570998697       -0.0596660223
 C         -1.1829623266       -2.1677912918       -1.0032150940
 C         -2.3308680538       -2.9362532596       -1.0040126726
 C         -3.3104964839       -2.7075592404       -0.0460860008
 C         -4.5792590365       -3.5069904178       -0.0589159143
 F         -4.4444258672       -4.7055503993       -0.6457174970
 F         -5.5662693068       -2.8733452877       -0.7319687795
 F         -5.0653817307       -3.7371497717        1.1715786902
 C         -3.1418841725       -1.7130796690        0.9109084896
 C         -1.9935819360       -0.9472213815        0.9033012272
 C          0.2902504618        1.0151438264        0.0685773763
 C         -0.7464668745        2.0018021552        0.0726728678
 N         -0.5567765134        3.2429871317        0.4454641086
 C         -1.7571352096        3.8731471770        0.2867835800
 C         -2.1260501090        5.1911255472        0.5399521352
 C         -3.4317090491        5.5495543534        0.2826400491
 C         -4.3632230773        4.6340847886       -0.2145820096
 C         -4.0215021241        3.3214293527       -0.4730951867
 C         -2.7116793055        2.9536222590       -0.2165952139
 N         -2.0367000650        1.7690530369       -0.3442750718
 S          1.9271190984        1.5681070502        0.1318929454
 C          4.8718042787        0.7223563852        0.1652243252
 C          6.2339581716        0.5004143245        0.1709601713
 H          9.9713578644       -0.6181606483        0.1192517473
 H          8.9541269419        0.6360074776       -0.6311204097
 H          8.8979591448        0.3738893959        1.1362323254
 H          6.2204371799       -2.8333700641       -0.3260250216
 H          3.7988961547       -2.4407913144       -0.3377352464
 H          1.6346981517       -2.0151034672       -0.1859317988
 H         -0.4215318258       -2.3390163886       -1.7487919043
 H         -2.4681702206       -3.7135784277       -1.7400341229
 H         -3.9027902799       -1.5510449113        1.6589231205
 H         -1.8494704817       -0.1864405907        1.6554716888
 H         -1.4060661982        5.8952361234        0.9239697015
 H         -3.7503401825        6.5642989672        0.4690722191
 H         -5.3746434328        4.9629744854       -0.4002559193
 H         -4.7404449431        2.6133494143       -0.8575113500
 H         -2.4041744730        0.8987806638       -0.6886282619
 H          4.5005008087        1.7273481304        0.3043998019
 H          6.8984347758        1.3378346345        0.3133682269
