  49
        -89.59788747
 C          9.0000263277       -0.4853660555        0.0295957533
 O          7.9867125235       -1.4641990584        0.0341667555
 C          6.6911575042       -1.0650588337        0.0093175870
 C          5.7353852213       -2.0854870449        0.0329198953
 C          4.3927360104       -1.7944397618        0.0152185923
 C          3.9461519862       -0.4676926251       -0.0267198370
 C          2.5366462343       -0.1496059762       -0.0375278574
 C          1.4573805413       -0.9933393336       -0.0091422848
 C          0.2045876590       -0.3467708213       -0.0422490621
 C         -1.0608397479       -1.0852272198       -0.0333558448
 C         -2.0426561902       -0.8401678907       -0.9890088407
 C         -3.2203114614       -1.5596641228       -0.9807988144
 C         -3.4254266280       -2.5332234977       -0.0106567490
 C         -4.6890704523       -3.3397332706       -0.0162584767
 F         -5.7379468573       -2.6833809997       -0.5376162316
 F         -5.0667306482       -3.7409388265        1.2098039978
 F         -4.5676154715       -4.4729218239       -0.7473585499
 C         -2.4482827376       -2.7971370361        0.9398524478
 C         -1.2709814228       -2.0751083963        0.9229448588
 C          0.3255505833        1.0279594076       -0.0812211780
 C         -0.7017831902        2.0206856827       -0.0337048217
 N         -1.9872025166        1.7771178766        0.0464501893
 C         -2.5990483177        2.9961149856        0.0886426686
 C         -3.9499660882        3.3206916962        0.1718548542
 C         -4.2844371152        4.6574202532        0.1928226048
 C         -3.3134861230        5.6611248892        0.1333359605
 C         -1.9680171964        5.3636700258        0.0504469944
 C         -1.6226994024        4.0227124259        0.0289375890
 N         -0.4235010309        3.3681935008       -0.0486480680
 S          1.9983131423        1.5044850097       -0.0857870294
 C          4.9080183805        0.5418259824       -0.0540298840
 C          6.2586894850        0.2577402171       -0.0366983109
 H          9.9388239668       -1.0351874992        0.0678244107
 H          8.9712286131        0.1180079429       -0.8831248950
 H          8.9286736424        0.1699247844        0.9033987121
 H          6.0800126647       -3.1068167684        0.0663723898
 H          3.6799865877       -2.6032603725        0.0345092622
 H          1.5423008432       -2.0646595480        0.0126122051
 H         -1.8781763157       -0.0886853718       -1.7434894283
 H         -3.9829365550       -1.3673770803       -1.7198202282
 H         -2.6152765986       -3.5567453052        1.6887543307
 H         -0.5131866368       -2.2700914285        1.6666380009
 H         -4.6949249041        2.5433763279        0.2191558159
 H         -5.3236783244        4.9438892519        0.2569790164
 H         -3.6262362855        6.6945528001        0.1531040223
 H         -1.2185965663        6.1399307899        0.0052465366
 H          0.4919631689        3.7840132494       -0.0984767450
 H          4.5887495708        1.5739325255       -0.0887298926
 H          6.9641255076        1.0732464234       -0.0588309061
  49
        -89.59786533
 C          8.6229795848       -2.2818484543       -0.1580684635
 O          8.0754410326       -0.9850320285       -0.2198309586
 C          6.7283599085       -0.8394663193       -0.1652273491
 C          6.2523067586        0.4740296905       -0.2205427013
 C          4.9041304112        0.7314256160       -0.1696421977
 C          3.9724377047       -0.3073320508       -0.0637076761
 C          2.5554232679       -0.0280055967       -0.0110903057
 C          1.4973650782       -0.8973014726       -0.0582796599
 C          0.2301996388       -0.2855416946        0.0349401211
 C         -1.0181424599       -1.0521161935       -0.0000764957
 C         -1.2211652321       -1.9809342985       -1.0175409539
 C         -2.3858052421       -2.7211905708       -1.0711635494
 C         -3.3572334082       -2.5378676417       -0.0957455056
 C         -4.6074726693       -3.3640011224       -0.1395451565
 F         -5.0165226072       -3.6359562649       -1.3914609362
 F         -5.6499804168       -2.7890982421        0.4804207006
 F         -4.4450381423       -4.5681720525        0.4576787465
 C         -3.1572451091       -1.6292703110        0.9363012471
 C         -1.9919883232       -0.8906470103        0.9810296943
 C          0.3186577046        1.0881505940        0.1427463823
 C         -0.7327891649        2.0561769859        0.1727076732
 N         -2.0147695318        1.7841758278        0.1516368247
 C         -2.6555456487        2.9887277840        0.1729344012
 C         -4.0160437058        3.2824799168        0.1666964932
 C         -4.3816224972        4.6107802119        0.1960336675
 C         -3.4318302650        5.6357229217        0.2311042457
 C         -2.0772564673        5.3688917919        0.2394868031
 C         -1.7008548206        4.0364984948        0.2106113070
 N         -0.4847055276        3.4091808859        0.2104966824
 S          1.9788425341        1.6069880569        0.1314970505
 C          4.4570755478       -1.6147549938       -0.0089624160
 C          5.8110509824       -1.8817425858       -0.0585705201
 H          9.7018174790       -2.1472158541       -0.2116736503
 H          8.3668689897       -2.7808237278        0.7817881910
 H          8.2929402894       -2.8975050663       -1.0006607573
 H          6.9695075207        1.2749651423       -0.3034650656
 H          4.5539852174        1.7526375356       -0.2148372895
 H          1.6085682892       -1.9630604414       -0.1450280415
 H         -0.4690105104       -2.1107476226       -1.7813836249
 H         -2.5479716341       -3.4325311163       -1.8667292048
 H         -3.9149091834       -1.5005601074        1.6937434504
 H         -1.8327783967       -0.1877389362        1.7817087634
 H         -4.7447324484        2.4886239487        0.1386846241
 H         -5.4289579996        4.8738083096        0.1918838680
 H         -3.7683009233        6.6615783527        0.2523647852
 H         -1.3446837980        6.1618048675        0.2666005372
 H          0.4222564338        3.8458491340        0.2267117381
 H          3.7689213914       -2.4403941199        0.0828959075
 H          6.1405657538       -2.9076322292       -0.0098802906
  49
        -89.59784646
 C          8.5976340620       -2.2871889549       -0.4350346211
 O          8.0669782753       -1.0154119754       -0.1412437031
 C          6.7204399001       -0.8559776048       -0.1254572440
 C          6.2590883802        0.4285753932        0.1778346085
 C          4.9123717675        0.6957322231        0.2208562984
 C          3.9679036803       -0.3049135888       -0.0336063889
 C          2.5520815960       -0.0194692812        0.0152927008
 C          1.4924656984       -0.8846247575       -0.0610737730
 C          0.2257851484       -0.2724254884        0.0348666835
 C         -1.0203524147       -1.0409766598       -0.0182724433
 C         -1.2098601442       -1.9639340715       -1.0435166149
 C         -2.3673959258       -2.7145734861       -1.1096503999
 C         -3.3456549149       -2.5467295095       -0.1389165233
 C         -4.5910377022       -3.3801045828       -0.1818728368
 F         -4.9167033580       -3.7867698772       -1.4205761818
 F         -5.6711753833       -2.7447871724        0.3020800863
 F         -4.4736584331       -4.5109881917        0.5532770027
 C         -3.1603636574       -1.6418327817        0.8997152072
 C         -2.0023396079       -0.8933222250        0.9571039460
 C          0.3160762463        1.0987687922        0.1700485749
 C         -0.7345195312        2.0675566163        0.2030068104
 N         -2.0161517692        1.7959226920        0.1645085541
 C         -2.6571638708        3.0001694048        0.1904416820
 C         -4.0175113061        3.2938904220        0.1706679176
 C         -4.3837572177        4.6218023198        0.2076978563
 C         -3.4347025531        5.6463197490        0.2633997697
 C         -2.0803806722        5.3794808151        0.2857530708
 C         -1.7032103518        4.0474683647        0.2491107450
 N         -0.4871237716        3.4200643496        0.2573993365
 S          1.9779097293        1.6132447301        0.1905056620
 C          4.4381521948       -1.5828394518       -0.3389141242
 C          5.7901860345       -1.8590051963       -0.3857168663
 H          9.6789034517       -2.1732330803       -0.3812240262
 H          8.2757415060       -3.0349793822        0.2964109814
 H          8.3181060324       -2.6157804688       -1.4409885766
 H          6.9864234922        1.1995200784        0.3765947219
 H          4.5735533154        1.6939611273        0.4584363270
 H          1.6022471615       -1.9501883161       -0.1516210748
 H         -0.4522933816       -2.0817700811       -1.8040096621
 H         -2.5173865579       -3.4216090214       -1.9114272436
 H         -3.9243628396       -1.5256006461        1.6529160926
 H         -1.8542030296       -0.1944965797        1.7631836644
 H         -4.7456768768        2.5002975179        0.1263237203
 H         -5.4309959842        4.8848108492        0.1933046436
 H         -3.7717151059        6.6718459703        0.2896723387
 H         -1.3485269523        6.1721205510        0.3281953534
 H          0.4195976851        3.8563372237        0.2858799291
 H          3.7396842447       -2.3767586865       -0.5517802304
 H          6.1076961611       -2.8609488353       -0.6281663387
  49
        -89.59782811
 C          8.6299778317       -2.2810298301       -0.0311825229
 O          8.0835620827       -0.9850002232        0.0530160501
 C          6.7355224296       -0.8398157621        0.0320672364
 C          6.2599068417        0.4718469779        0.1221370597
 C          4.9106295188        0.7280785114        0.1120764248
 C          3.9767296012       -0.3095595801        0.0130085963
 C          2.5587881596       -0.0306221165        0.0105779668
 C          1.5018106234       -0.9023138878       -0.0219451420
 C          0.2327613092       -0.2885386690        0.0141272063
 C         -1.0139565304       -1.0583869517        0.0069905690
 C         -1.9969753583       -0.8418003000        0.9691140386
 C         -3.1563687579       -1.5889030427        0.9601172023
 C         -3.3418150123       -2.5645949191       -0.0136938946
 C         -4.6117398210       -3.3610802057        0.0065717767
 F         -5.7118773252       -2.5869097679       -0.0724940529
 F         -4.7522493803       -4.0719062157        1.1469685770
 F         -4.7088673742       -4.2496752279       -0.9945616998
 C         -2.3653744409       -2.7983669656       -0.9709947571
 C         -1.2051175921       -2.0476945869       -0.9532627675
 C          0.3185994391        1.0888930957        0.0570325436
 C         -0.7336040285        2.0557815904        0.0212336480
 N         -2.0142701852        1.7810379926       -0.0276466157
 C         -2.6561898983        2.9846380890       -0.0623981841
 C         -4.0162624200        3.2761158123       -0.1128280108
 C         -4.3834958562        4.6041602168       -0.1316729041
 C         -3.4358419090        5.6312311624       -0.1023875024
 C         -2.0818050047        5.3667542586       -0.0524148613
 C         -1.7037577766        4.0346435704       -0.0321070420
 N         -0.4876327383        3.4095816128        0.0208533977
 S          1.9781372494        1.6085399826        0.0616072318
 C          4.4614141949       -1.6150054939       -0.0792706618
 C          5.8164127117       -1.8809680466       -0.0703519501
 H          8.3585620770       -2.7705410721       -0.9717038260
 H          9.7095676078       -2.1467227182        0.0060683483
 H          8.3137783840       -2.9051327809        0.8104872801
 H          6.9780729240        1.2723910290        0.2002339101
 H          4.5614307120        1.7480842992        0.1839166656
 H          1.6142571040       -1.9712324802       -0.0436723731
 H         -1.8480142362       -0.0897892717        1.7256985971
 H         -3.9218395343       -1.4223006158        1.7025729150
 H         -2.5136517843       -3.5590432330       -1.7221935480
 H         -0.4460630297       -2.2206511484       -1.7016972846
 H         -4.7434429286        2.4807829082       -0.1360528769
 H         -5.4306781834        4.8652368530       -0.1701775248
 H         -3.7737153816        6.6566688248       -0.1197650207
 H         -1.3505980956        6.1610163235       -0.0302367361
 H          0.4182441283        3.8479350936        0.0454461211
 H          3.7724369930       -2.4409192739       -0.1609972933
 H          6.1453876138       -2.9055956245       -0.1436725740
  49
        -89.59778681
 C          8.6367990151       -2.2804433870       -0.1517605130
 O          8.0893472825       -0.9836607456       -0.2195436671
 C          6.7423133689       -0.8377389956       -0.1626894332
 C          6.2656095721        0.4751134941       -0.2291377379
 C          4.9172001155        0.7322567193       -0.1817193008
 C          3.9860834987       -0.3063228822       -0.0689186910
 C          2.5682624845       -0.0295403506       -0.0242174459
 C          1.5129612904       -0.9010750192       -0.0905047306
 C          0.2440750579       -0.2933133501        0.0011769847
 C         -1.0044621786       -1.0595987545       -0.0320614710
 C         -1.2171005460       -1.9879496478       -1.0468351936
 C         -2.3832510898       -2.7285897696       -1.0915351068
 C         -3.3428318409       -2.5472868455       -0.1064036488
 C         -4.6228100132       -3.3277762441       -0.1190247971
 F         -4.7064328336       -4.2135074604       -1.1239694460
 F         -5.7104970987       -2.5381860297       -0.2263143397
 F         -4.8026582653       -4.0368285018        1.0160936509
 C         -3.1351751117       -1.6340751359        0.9221157958
 C         -1.9703312591       -0.8966773887        0.9577088660
 C          0.3286049530        1.0790963751        0.1266025217
 C         -0.7289417535        2.0403536156        0.1589858127
 N         -2.0057848904        1.7623717621        0.0576616287
 C         -2.6574020990        2.9596345049        0.1170944995
 C         -4.0185885393        3.2449109147        0.0594665389
 C         -4.3972708867        4.5665834316        0.1513531264
 C         -3.4599174086        5.5931292321        0.2977562227
 C         -2.1050235357        5.3347098577        0.3563585917
 C         -1.7152772329        4.0090772785        0.2637253939
 N         -0.4947550923        3.3902142924        0.2862279807
 S          1.9871603035        1.6023123324        0.1346125711
 C          4.4715484206       -1.6126878353        0.0008270897
 C          5.8257102061       -1.8793173330       -0.0449097377
 H          8.3839830508       -2.7735808151        0.7920934597
 H          8.3033046969       -2.9009619412       -0.9894594428
 H          9.7156153449       -2.1463703893       -0.2101138506
 H          6.9822687798        1.2758857236       -0.3192446976
 H          4.5666119442        1.7529642645       -0.2357388662
 H          1.6280643739       -1.9651909542       -0.1915658838
 H         -0.4722532872       -2.1176586553       -1.8179413162
 H         -2.5494086029       -3.4404504187       -1.8856909187
 H         -3.8874175192       -1.5089383314        1.6859350502
 H         -1.8034112450       -0.1936355935        1.7567990184
 H         -4.7375380179        2.4497757141       -0.0539144265
 H         -5.4455736528        4.8230340457        0.1099583327
 H         -3.8067153692        6.6134284597        0.3663585618
 H         -1.3821084732        6.1288678422        0.4688188996
 H          0.4063135140        3.8307245705        0.3729012143
 H          3.7836052925       -2.4373933249        0.1032024948
 H          6.1557857215       -2.9044638948        0.0143056728
  49
        -89.59775939
 C          8.6228571325       -2.2661568743        0.2552473675
 O          8.0781590028       -0.9970172327       -0.0244021966
 C          6.7307364845       -0.8446640970       -0.0069932573
 C          6.2561450850        0.4382713306       -0.2962429273
 C          4.9076171033        0.6994954962       -0.3037180256
 C          3.9748823771       -0.3061588555       -0.0270190836
 C          2.5569924628       -0.0263294739       -0.0406079573
 C          1.5018132915       -0.8990271060        0.0013206715
 C          0.2318622633       -0.2874358793       -0.0474767195
 C         -1.0122096385       -1.0610895514       -0.0232501958
 C         -1.1930467544       -2.0343278785        0.9556699294
 C         -2.3500318208       -2.7886227013        0.9946281049
 C         -3.3324923700       -2.5780729387        0.0376203083
 C         -4.6065628816       -3.3680275660        0.0594393355
 F         -5.6674877544       -2.6287043001        0.4457670677
 F         -4.5708986040       -4.4229501609        0.8897268887
 F         -4.9312032628       -3.8598625659       -1.1530958339
 C         -3.1582771760       -1.6176981845       -0.9529427930
 C         -2.0019496709       -0.8657019403       -0.9826835476
 C          0.3161523071        1.0894087086       -0.1082937575
 C         -0.7356683561        2.0572333493       -0.0817152821
 N         -2.0178052315        1.7855898027       -0.0738732978
 C         -2.6576019155        2.9899280921       -0.0250553972
 C         -4.0177410939        3.2843677535       -0.0018664432
 C         -4.3819010533        4.6125984031        0.0446836074
 C         -3.4311738007        5.6369106493        0.0686983340
 C         -2.0770431339        5.3694967947        0.0450003366
 C         -1.7021437449        4.0372518020       -0.0033363750
 N         -0.4866646773        3.4099616580       -0.0415966612
 S          1.9758623902        1.6108712818       -0.1194457102
 C          4.4579067305       -1.5825103331        0.2635503707
 C          5.8120850781       -1.8525403268        0.2750901851
 H          9.7021275247       -2.1443998248        0.1824904783
 H          8.3638326367       -2.6004421285        1.2648389735
 H          8.2928842991       -3.0135449893       -0.4731656076
 H          6.9745852119        1.2127129484       -0.5123187052
 H          4.5579950148        1.6960179539       -0.5322610199
 H          1.6177099732       -1.9674584542        0.0305054177
 H         -0.4292942646       -2.1894241004        1.7032597380
 H         -2.4903903235       -3.5367626084        1.7598525330
 H         -3.9276627809       -1.4689310601       -1.6950367071
 H         -1.8614790261       -0.1258793798       -1.7525915547
 H         -4.7474497321        2.4912069072       -0.0184890745
 H         -5.4289839961        4.8760069562        0.0637909617
 H         -3.7666327532        6.6625999367        0.1068479041
 H         -1.3434333829        6.1616762591        0.0643163821
 H          0.4205823618        3.8460195573       -0.0310343327
 H          3.7678210649       -2.3787230231        0.4948256260
 H          6.1405732885       -2.8527691744        0.5093862552
  49
        -89.59660446
 C          9.0895922953       -0.4458585048        0.0504340630
 O          8.0916343454       -1.4351571625       -0.0530801853
 C          6.7898305343       -1.0524420755       -0.0412508417
 C          5.8480767106       -2.0800839104       -0.1504414343
 C          4.5015335376       -1.8060040874       -0.1479018977
 C          4.0378751985       -0.4892865842       -0.0360113094
 C          2.6252200763       -0.1863077193       -0.0296735113
 C          1.5535567394       -1.0440951718       -0.0338816129
 C          0.3023485094       -0.4025434676       -0.0241312277
 C         -0.9984438112       -1.0934379724       -0.0238951244
 C         -1.6492651054       -1.3593506000       -1.2225106077
 C         -2.8739729385       -1.9974853251       -1.2253401240
 C         -3.4496828104       -2.3790651827       -0.0206439972
 C         -4.7954160785       -3.0408875353       -0.0147082992
 F         -5.8084151671       -2.1531901404        0.0798397116
 F         -4.9598494743       -3.8917279005        1.0142812151
 F         -5.0387019638       -3.7537948958       -1.1290251101
 C         -2.8066787313       -2.1196556382        1.1826166954
 C         -1.5814652653       -1.4826648753        1.1759967571
 C          0.4120785533        0.9702894497       -0.0121217243
 C         -0.6639936871        1.9073243885        0.0124122383
 N         -1.9304141563        1.5690713350        0.0338160305
 C         -2.6280890008        2.7426520844        0.0582336230
 C         -4.0003730071        2.9722231733        0.0888088820
 C         -4.4278944388        4.2822875993        0.1108663939
 C         -3.5282125647        5.3516264053        0.1034574150
 C         -2.1629070159        5.1489792700        0.0736871816
 C         -1.7249894444        3.8356568199        0.0506441261
 N         -0.4788684904        3.2686559391        0.0214496211
 S          2.0759479505        1.4658776980       -0.0120147515
 C          4.9864469214        0.5277984815        0.0697147734
 C          6.3404966797        0.2607382885        0.0686336128
 H         10.0372469550       -0.9803493974        0.0171873144
 H          9.0426288256        0.2598479981       -0.7848563850
 H          9.0154881730        0.1009220455        0.9957995433
 H          6.2075233331       -3.0931582296       -0.2376205219
 H          3.7995117350       -2.6194111183       -0.2380459997
 H          1.6467666621       -2.1149663636       -0.0393095197
 H         -1.1983210707       -1.0555929001       -2.1547928380
 H         -3.3833751320       -2.2019342980       -2.1547759347
 H         -3.2651499320       -2.4178543039        2.1132868262
 H         -1.0768196787       -1.2749454676        2.1072463254
 H         -4.6910358034        2.1446151278        0.0948977809
 H         -5.4863598523        4.4952373500        0.1350293728
 H         -3.9124610388        6.3606338181        0.1222008407
 H         -1.4677277086        5.9753291889        0.0685683194
 H          0.4070728965        3.7462767188        0.0076955071
 H          4.6533220965        1.5523385749        0.1572638361
 H          7.0346879363        1.0815672291        0.1542658823
  49
        -89.59603449
 C          8.9984165138       -0.4439164511        0.0571431744
 O          7.9962945918       -1.4122607906       -0.1549278705
 C          6.6968917810       -1.0282501819       -0.1142739147
 C          5.7530502587       -2.0369314164       -0.3304480836
 C          4.4071563971       -1.7591304158       -0.3097133915
 C          3.9457656888       -0.4586663017       -0.0718155109
 C          2.5336163066       -0.1471728254       -0.0443468969
 C          1.4659329693       -0.9985666021       -0.1688253036
 C          0.2094532782       -0.3652817110       -0.0723263171
 C         -1.0463435047       -1.1168528069       -0.0967768069
 C         -1.2704106577       -2.0797483135       -1.0797514478
 C         -2.4453572659       -2.8059157480       -1.0998341660
 C         -3.4067077069       -2.5829807047       -0.1222342375
 C         -4.7036649457       -3.3352362245       -0.1542776874
 F         -4.6180486488       -4.5119936511       -0.7922227626
 F         -5.6735606428       -2.6388059523       -0.7890869474
 F         -5.1858337789       -3.5996273414        1.0708819459
 C         -3.1928905251       -1.6364894526        0.8736044576
 C         -2.0177236425       -0.9125808307        0.8851767722
 C          0.3274902636        1.0003019152        0.1077561186
 C         -0.6727117422        2.0223765601        0.1647967542
 N         -0.4345670205        3.2391202306        0.5870737011
 C         -1.6127917952        3.9179764570        0.4684027421
 C         -1.9312388218        5.2364409814        0.7806563150
 C         -3.2254922875        5.6519180566        0.5532519325
 C         -4.1943466384        4.7921957041        0.0286269161
 C         -3.9029334810        3.4802449703       -0.2884380771
 C         -2.6048667236        3.0552892812       -0.0622844437
 N         -1.9745186783        1.8537743161       -0.2470180182
 S          1.9838554767        1.4911607201        0.1757857890
 C          4.8961511866        0.5399127611        0.1406148050
 C          6.2493614240        0.2693190836        0.1217595358
 H          9.9431036732       -0.9791124055       -0.0186940446
 H          8.9647388487        0.3412369578       -0.7044306127
 H          8.9162783688        0.0068689075        1.0509172130
 H          6.1102423615       -3.0378723896       -0.5141853475
 H          3.7045145141       -2.5587372665       -0.4822604558
 H          1.5587361327       -2.0626614820       -0.2884786717
 H         -0.5229602395       -2.2464643297       -1.8403452051
 H         -2.6178729195       -3.5460413002       -1.8661672486
 H         -3.9401262036       -1.4790714319        1.6362430761
 H         -1.8388460497       -0.1899001923        1.6668745578
 H         -1.1825225622        5.8974812952        1.1857090185
 H         -3.5053250359        6.6686336634        0.7855715234
 H         -5.1949430211        5.1646221870       -0.1317469056
 H         -4.6507570601        2.8152209625       -0.6940668808
 H         -2.3766082208        1.0125355898       -0.6233582481
 H          4.5628708789        1.5507719045        0.3259051626
 H          6.9450927047        1.0756580277        0.2916344303
  49
        -89.59590537
 C          8.9827499190       -0.4392689319       -0.0699635075
 O          7.9777972620       -1.4228933164        0.0267012624
 C          6.6791990247       -1.0337455488        0.0222006951
 C          5.7327052564       -2.0583805438        0.1185358305
 C          4.3874166058       -1.7768975409        0.1213392251
 C          3.9302401567       -0.4569647210        0.0280521440
 C          2.5182832270       -0.1422556704        0.0276300080
 C          1.4515179176       -0.9988699649       -0.0586415421
 C          0.1940263939       -0.3610018844       -0.0126899032
 C         -1.0585570654       -1.1178658232       -0.0240144648
 C         -2.0571848888       -0.8660521608        0.9180678118
 C         -3.2306354335       -1.5947172378        0.9150531420
 C         -3.4131506667       -2.5942238806       -0.0319477926
 C         -4.6863925809       -3.3849662973       -0.0830616092
 F         -4.4689253050       -4.7103384251       -0.1539385551
 F         -5.4273632985       -3.0768661106       -1.1701566485
 F         -5.4829186460       -3.1870462141        0.9765076539
 C         -2.4212872590       -2.8688192223       -0.9668105947
 C         -1.2510039736       -2.1368384253       -0.9569324177
 C          0.3118617213        1.0126076417        0.0928264805
 C         -0.6798236579        2.0441755882        0.0813565620
 N         -0.4213987975        3.2868158302        0.4060639184
 C         -1.5926487780        3.9699100468        0.2511942025
 C         -1.8901519618        5.3128160186        0.4642207937
 C         -3.1825382856        5.7265851588        0.2234781416
 C         -4.1696021231        4.8414290487       -0.2183608313
 C         -3.8987461648        3.5052639308       -0.4373088434
 C         -2.6024156039        3.0819665430       -0.1983523359
 N         -1.9893191515        1.8616346585       -0.2989110111
 S          1.9687980245        1.5057469390        0.1477188746
 C          4.8827824015        0.5575997205       -0.0631375223
 C          6.2354405613        0.2832973066       -0.0678778132
 H          9.9262397599       -0.9817701508       -0.0494838788
 H          8.9068670331        0.1202232873       -1.0075013906
 H          8.9462320930        0.2556275619        0.7747225571
 H          6.0873743769       -3.0742340123        0.1931361087
 H          3.6816464889       -2.5877783506        0.2071426832
 H          1.5461678376       -2.0671213160       -0.1306983659
 H         -1.9025185411       -0.1013528229        1.6643269064
 H         -3.9984872942       -1.3957589861        1.6466581643
 H         -2.5718705240       -3.6530981526       -1.6930969697
 H         -0.4827319757       -2.3412016413       -1.6868530277
 H         -1.1270777080        5.9932233753        0.8054663697
 H         -3.4463561611        6.7620327736        0.3791579208
 H         -5.1682038253        5.2133192722       -0.3921578438
 H         -4.6610330046        2.8207960635       -0.7789947679
 H         -2.4046893587        0.9989966806       -0.6054404669
 H          4.5517340401        1.5834295828       -0.1352156446
 H          6.9336457337        1.1017114828       -0.1437076168
  49
        -89.59573731
 C          8.6047516956       -2.2615877837        0.0850910299
 O          8.0572677827       -0.9676636705       -0.0159135565
 C          6.7094839780       -0.8224415492        0.0059520896
 C          6.2333618267        0.4885321175       -0.0969225798
 C          4.8841703713        0.7455501026       -0.0884249230
 C          3.9512924933       -0.2920520498        0.0201776433
 C          2.5325274801       -0.0094244929        0.0196868506
 C          1.4864490093       -0.8920933606       -0.0599527512
 C          0.2142709104       -0.2844246255       -0.0183900288
 C         -1.0176156242       -1.0749158528       -0.0276421473
 C         -2.0184620341       -0.8581439314        0.9208305490
 C         -3.1653578456       -1.6269763639        0.9221687881
 C         -3.3201795888       -2.6316160121       -0.0258944865
 C         -4.5836303163       -3.4390781353       -0.0468037597
 F         -5.5562016776       -2.8346362039       -0.7654640821
 F         -5.1010973590       -3.6345735237        1.1767510345
 F         -4.4247300253       -4.6546013575       -0.5918313704
 C         -2.3291843740       -2.8660994783       -0.9706568138
 C         -1.1839620506       -2.0943848113       -0.9641856121
 C          0.2992464480        1.0922489819        0.0775974380
 C         -0.7176692163        2.0987695117        0.0604999642
 N         -0.4855468081        3.3523604678        0.3621989068
 C         -1.6741633379        4.0050501929        0.2093148828
 C         -2.0015904288        5.3436977041        0.4040703788
 C         -3.3060281230        5.7225313895        0.1708693497
 C         -4.2756883682        4.8077256364       -0.2466314797
 C         -3.9752908099        3.4749122782       -0.4468629971
 C         -2.6670415647        3.0863304866       -0.2144181781
 N         -2.0262498066        1.8789393484       -0.3019199884
 S          1.9441937625        1.6255327641        0.1272629932
 C          4.4361054299       -1.5957545415        0.1283061100
 C          5.7913138859       -1.8627476050        0.1220131143
 H          9.6843008350       -2.1270677419        0.0424527283
 H          8.3370044433       -2.7379418279        1.0335169315
 H          8.2866517781       -2.8987724627       -0.7461990272
 H          6.9524915652        1.2878394583       -0.1837506637
 H          4.5318794655        1.7631749034       -0.1710462159
 H          1.6059860644       -1.9583700472       -0.1251884501
 H         -1.8847080987       -0.0914777082        1.6688481929
 H         -3.9347179324       -1.4603288366        1.6602999217
 H         -2.4553698700       -3.6515189356       -1.7001650491
 H         -0.4128264129       -2.2717386419       -1.6984154776
 H         -1.2516117645        6.0466839057        0.7270335922
 H         -3.5925727254        6.7541285014        0.3130183111
 H         -5.2846057200        5.1530452289       -0.4161156256
 H         -4.7243388167        2.7675997218       -0.7701028101
 H         -2.4263696318        1.0023085260       -0.5883533726
 H          3.7473396007       -2.4202439997        0.2295937268
 H          6.1203216608       -2.8861939715        0.2114781922
