  52
  -75.3234535300000       0.255402465417958      !
 C         -5.6659845593        1.6371147289       -0.2400174077
 C         -4.9768285734        0.6140193042       -0.8859981361
 C         -3.6076837366        0.5435588376       -0.8290964378
 C         -2.8484914736        1.5028992028       -0.1081546624
 C         -1.4319467446        1.4395942964        0.0160409002
 C         -0.6718692911        2.6591276980        0.0323687151
 C          0.6734474477        2.6590230653       -0.0705051360
 C          1.4341680525        1.4405365571       -0.0325481123
 C          2.8478555704        1.5037128069        0.1059765762
 C          3.5991904209        0.5439516801        0.8367937856
 C          4.9674176139        0.6119549522        0.9070922098
 C          5.6651639089        1.6326539860        0.2658700251
 C          4.9513276654        2.6066949704       -0.4312828602
 C          3.5828903320        2.5607637264       -0.4974236157
 C          0.6885024253        0.2036922625       -0.0214796133
 C          1.4262339304       -1.0672236852       -0.0974535780
 C          1.2345738184       -2.0807006834        0.8420368403
 C          1.9368900283       -3.2655612954        0.7472525309
 C          2.8356511532       -3.4649584519       -0.2894553699
 C          3.0334656219       -2.4658980236       -1.2279226573
 C          2.3401318553       -1.2749359745       -1.1315402553
 C         -0.6875606558        0.2043578864        0.0132727774
 C         -1.4260159833       -1.0669159510        0.0931469546
 C         -1.2445637354       -2.0763929259       -0.8521284839
 C         -1.9479680099       -3.2606447471       -0.7554447106
 C         -2.8368201205       -3.4625812313        0.2891235134
 C         -3.0234649171       -2.4674000043        1.2339428261
 C         -2.3290709300       -1.2770830590        1.1356009072
 C         -3.5744935795        2.5615186001        0.5012048048
 C         -4.9438497455        2.6105602067        0.4484117811
 H         -6.7429306685        1.6857373067       -0.2849703161
 H         -5.5247372316       -0.1246883410       -1.4532176039
 H         -3.0938898936       -0.2168302249       -1.3946482526
 H         -1.2054952804        3.5971946747        0.0367356046
 H          1.2055283807        3.5976000957       -0.0900105649
 H          3.0783065436       -0.2133571526        1.3999556023
 H          5.5083748003       -0.1265812320        1.4812713368
 H          6.7417456418        1.6793363052        0.3212339376
 H          5.4844510726        3.4036253915       -0.9301684294
 H          3.0575146962        3.3008319726       -1.0818106999
 H          0.5474966405       -1.9240239280        1.6608536410
 H          1.7853636584       -4.0380515622        1.4870457153
 H          3.3807791805       -4.3943380673       -0.3627402366
 H          3.7326512819       -2.6150978327       -2.0378065615
 H          2.4897168466       -0.4997801559       -1.8694188342
 H         -0.5638682041       -1.9175446465       -1.6759616248
 H         -1.8048980536       -4.0304545243       -1.4998281100
 H         -3.3826290098       -4.3913810962        0.3640918533
 H         -3.7149244521       -2.6188476397        2.0501003569
 H         -2.4706196956       -0.5041166325        1.8774146699
 H         -3.0411604730        3.3017420919        1.0781301913
 H         -5.4703242663        3.4093827042        0.9513447181
  52
  -75.3234335800000       0.250067181967886      !
 C         -5.6682250995        1.6457126995       -0.2515825615
 C         -4.9006238758        2.5182567870       -1.0203950442
 C         -3.5304804898        2.4629756915       -0.9848338962
 C         -2.8504718740        1.4971582130       -0.1971571849
 C         -1.4274244364        1.4223694910       -0.2313319460
 C         -0.6665122156        2.6357493382       -0.3518513527
 C          0.6746030756        2.6526167293       -0.2055212184
 C          1.4350741420        1.4390180924       -0.0894768132
 C          2.8486785772        1.4820254306       -0.2184014494
 C          3.6046390792        0.4317651300       -0.8094271326
 C          4.9734612820        0.4853440509       -0.8724077644
 C          5.6694852982        1.5789727341       -0.3621991059
 C          4.9524937144        2.6385949624        0.1936249170
 C          3.5837132030        2.6070653183        0.2497529281
 C          0.6860971310        0.2073127307        0.0354528905
 C          1.4194539966       -1.0382632201        0.3041269478
 C          1.2428606370       -2.1775255486       -0.4828773344
 C          1.9418181213       -3.3354676562       -0.2068621812
 C          2.8233057759       -3.3829411374        0.8625123958
 C          3.0075815569       -2.2584007408        1.6498476501
 C          2.3176851161       -1.0944565216        1.3716948778
 C         -0.6883788035        0.2016086223       -0.0434556962
 C         -1.4255480931       -1.0720996155        0.0290609452
 C         -2.2819902518       -1.4376414813       -1.0091667596
 C         -2.9710964262       -2.6344717291       -0.9618315998
 C         -2.8240304942       -3.4802775396        0.1249089629
 C         -1.9811192359       -3.1223740945        1.1655449789
 C         -1.2840080197       -1.9311131002        1.1182948022
 C         -3.6556212669        0.6430016768        0.5993321143
 C         -5.0258206599        0.7196132924        0.5654429962
 H         -6.7456768303        1.6984654508       -0.2780427716
 H         -5.3905986628        3.2418053507       -1.6565867629
 H         -2.9578720700        3.1194062988       -1.6225766502
 H         -1.2011441822        3.5653411014       -0.4748404343
 H          1.2044874843        3.5903015323       -0.2700531235
 H          3.0859904316       -0.3901113950       -1.2758443767
 H          5.5170073532       -0.3231730553       -1.3400660153
 H          6.7466505057        1.6148501575       -0.4118884478
 H          5.4845040660        3.4917444799        0.5904179461
 H          3.0565827530        3.4191094998        0.7269521437
 H          0.5711047531       -2.1414547782       -1.3280881975
 H          1.8015422802       -4.2065251059       -0.8304142701
 H          3.3653129574       -4.2918319906        1.0781185561
 H          3.6938006096       -2.2884527118        2.4836792948
 H          2.4565877653       -0.2212686268        1.9929588559
 H         -2.3921713902       -0.7815293504       -1.8608853303
 H         -3.6266911322       -2.9082304578       -1.7757419684
 H         -3.3652216169       -4.4141267327        0.1629248631
 H         -1.8688969119       -3.7750031054        2.0192342370
 H         -0.6379702140       -1.6492635987        1.9372663496
 H         -3.1812667634       -0.0362445423        1.2891470663
 H         -5.6112883528        0.0621607420        1.1920606809
  52
  -75.3234318000000       0.249596602047188      !
 C         -5.6667881785        1.6373700641       -0.0261146451
 C         -4.9943988937        0.6214533565        0.6493458807
 C         -3.6247600640        0.5522070180        0.6313041387
 C         -2.8447417317        1.5058976808       -0.0783249320
 C         -1.4273835817        1.4409265649       -0.1567744588
 C         -0.6629874045        2.6574158539       -0.1850726932
 C          0.6734717597        2.6579691898       -0.0006949951
 C          1.4303112818        1.4382220204        0.0684183081
 C          2.8530130144        1.5022125072        0.0610157682
 C          3.6728778803        0.5344371720       -0.5764228380
 C          5.0420470949        0.6074007897       -0.5140149263
 C          5.6707482920        1.6418592097        0.1736994435
 C          4.8901612165        2.6245694019        0.7801681981
 C          3.5213696444        2.5721599489        0.7141333333
 C          0.6872319254        0.2039034215        0.0329486739
 C          1.4159328926       -1.0685222964        0.1714920621
 C          2.2418589707       -1.2754782016        1.2765311111
 C          2.9217134023       -2.4683281725        1.4312704976
 C          2.7959156758       -3.4696544602        0.4829051051
 C          1.9843525630       -3.2707355775       -0.6231838747
 C          1.2967730878       -2.0831191241       -0.7777888123
 C         -0.6841175486        0.2032623843       -0.0875561554
 C         -1.4175655332       -1.0667581650       -0.2024170383
 C         -2.2727033208       -1.2733935323       -1.2860606476
 C         -2.9573925843       -2.4652275918       -1.4240010171
 C         -2.8099215392       -3.4668402683       -0.4789665678
 C         -1.9723476952       -3.2677764354        0.6078752271
 C         -1.2790751004       -2.0818823613        0.7451077734
 C         -3.5564573831        2.5574276225       -0.7194997742
 C         -4.9262077402        2.6044413830       -0.7051145961
 H         -6.7445285066        1.6857120109       -0.0107644489
 H         -5.5572751797       -0.1111637988        1.2098448739
 H         -3.1260918765       -0.2004411258        1.2201191739
 H         -1.1890512115        3.5961903098       -0.2640507499
 H          1.2092641676        3.5948162029        0.0078923570
 H          3.2116853317       -0.2363461201       -1.1724206054
 H          5.6384218191       -0.1392273828       -1.0186689978
 H          6.7474709270        1.6920774530        0.2233136574
 H          5.3694307474        3.4330105223        1.3140161199
 H          2.9383691779        3.3202111574        1.2298400132
 H          2.3344360910       -0.4979584924        2.0212810466
 H          3.5533362124       -2.6172754940        2.2949337202
 H          3.3293228772       -4.4009897791        0.6030249951
 H          1.8890320027       -4.0455786537       -1.3699463743
 H          0.6763091982       -1.9269174895       -1.6483746312
 H         -2.3823430668       -0.4967787171       -2.0294021861
 H         -3.6095107041       -2.6136670694       -2.2724181927
 H         -3.3473737634       -4.3974071607       -0.5855592378
 H         -1.8620494281       -4.0413686823        1.3539471757
 H         -0.6407855972       -1.9259072368        1.6025540707
 H         -3.0094788010        3.2924891741       -1.2901390340
 H         -5.4396771980        3.3971082475       -1.2308381125
  52
  -75.3231518000000       0.185592139422418      !
 C         -5.6570984830        1.6436283942       -0.0329515890
 C         -4.9367847162        2.5613825125       -0.7969608569
 C         -3.5686438488        2.5049727577       -0.8570293961
 C         -2.8376689823        1.4924499491       -0.1747125658
 C         -1.4237045080        1.4192141669       -0.2834125847
 C         -0.6578646432        2.6271104049       -0.4216519989
 C          0.6790698907        2.6404001351       -0.2417747382
 C          1.4313539949        1.4298303926       -0.0561612107
 C          2.8551000724        1.4854220938       -0.0954835283
 C          3.6549172657        0.4525107338       -0.6481888757
 C          5.0252187154        0.5313057223       -0.6435469417
 C          5.6741077969        1.6348187642       -0.0963827306
 C          4.9123830498        2.6747728083        0.4319328910
 C          3.5417605597        2.6155756289        0.4209803968
 C          0.6873193065        0.1999178269        0.0276502123
 C          1.4139838827       -1.0460481632        0.3285701070
 C          2.1951677198       -1.1115632631        1.4821891587
 C          2.8646038434       -2.2741189848        1.8128401532
 C          2.7735093691       -3.3861953838        0.9925836821
 C          2.0103916134       -3.3271560571       -0.1632479329
 C          1.3326431118       -2.1696315846       -0.4931549359
 C         -0.6817639841        0.1876490517       -0.1155957385
 C         -1.4180596975       -1.0835414339       -0.1765350968
 C         -2.2444787487       -1.3320457549       -1.2743788154
 C         -2.9290359153       -2.5264464618       -1.3850896298
 C         -2.8120796253       -3.4896620708       -0.3966332909
 C         -2.0068373775       -3.2474868434        0.7059711258
 C         -1.3124622351       -2.0590980722        0.8160987350
 C         -3.5976370725        0.5862365417        0.6155436459
 C         -4.9652235146        0.6648340850        0.6773443780
 H         -6.7332318123        1.7012676908        0.0196725314
 H         -5.4654276428        3.3230211147       -1.3526856924
 H         -3.0403065578        3.1997644564       -1.4919516709
 H         -1.1810591685        3.5566043577       -0.5842730058
 H          1.2178209647        3.5719930654       -0.3229131330
 H          3.1760298849       -0.3808419906       -1.1360434040
 H          5.6057010634       -0.2659127754       -1.0854304507
 H          6.7517465246        1.6907639977       -0.0937200904
 H          5.4071568337        3.5350219150        0.8602469601
 H          2.9751144331        3.4137307813        0.8763736516
 H          2.2599853757       -0.2464192951        2.1266203514
 H          3.4593740486       -2.3126273379        2.7139230523
 H          3.2973135457       -4.2947728827        1.2505530242
 H          1.9442420101       -4.1892352567       -0.8110243249
 H          0.7482299521       -2.1248455236       -1.4008952241
 H         -2.3294988868       -0.5854172634       -2.0510587792
 H         -3.5566551690       -2.7068554337       -2.2457628726
 H         -3.3482557398       -4.4232239119       -0.4822438498
 H         -1.9214679580       -3.9908417883        1.4852997977
 H         -0.6996695856       -1.8710799050        1.6856902513
 H         -3.0824423175       -0.1344403076        1.2295263186
 H         -5.5107584294       -0.0290230772        1.3008970807
  52
  -75.3217465700000       4.195276447821514E-002 !
 C         -5.2304664696        1.5820801897        1.6379485943
 C         -4.4014942140        0.4858724057        1.8375458503
 C         -3.1828736195        0.4082509082        1.2045001034
 C         -2.7360538328        1.4402523435        0.3481622197
 C         -1.4639228015        1.3339727475       -0.2949752454
 C         -0.7527974063        2.4253361633       -0.7912312968
 C          0.6088836831        2.3435819473       -0.9777971062
 C          1.3431382281        1.2200424936       -0.4961640888
 C          2.7917706200        1.4031398917       -0.3061341169
 C          3.3766466937        1.2275769726        0.9463186217
 C          4.7324241528        1.4286625434        1.1187396011
 C          5.5242814704        1.8080454891        0.0465962962
 C          4.9497171791        1.9959491995       -1.1991306175
 C          3.5918905732        1.8013931480       -1.3738019369
 C          0.6722780446        0.0809490179       -0.1186401760
 C          1.3382683303       -1.0516774139        0.5186916181
 C          0.7342676344       -1.6597674375        1.6231845611
 C          1.3466243175       -2.7140733381        2.2700980813
 C          2.5684061489       -3.1912952015        1.8226708926
 C          3.1704310248       -2.6076098661        0.7182862314
 C          2.5666577915       -1.5481208300        0.0719817185
 C         -0.7596851221        0.0387168982       -0.3942708527
 C         -1.3850793010       -1.0596948413       -1.0070518961
 C         -2.7455133754       -0.9902750003       -1.4441036044
 C         -3.4018559635       -2.0948417801       -1.9206611730
 C         -2.7526026921       -3.3219170364       -2.0299692962
 C         -1.4002950595       -3.3997401178       -1.6987631907
 C         -0.7245264759       -2.3061994253       -1.2266035341
 C         -3.5894244158        2.5491262043        0.1724382080
 C         -4.8124509050        2.6088815921        0.7989807172
 H         -6.1902923357        1.6374150943        2.1288241807
 H         -4.7163647361       -0.3136754065        2.4926370368
 H         -2.5436442572       -0.4454970765        1.3723367151
 H         -1.2362791161        3.3828865516       -0.9139463939
 H          1.1611878568        3.2149666095       -1.2957141801
 H          2.7594019150        0.9405206553        1.7851046469
 H          5.1748207159        1.2905393549        2.0945178981
 H          6.5848006433        1.9601973252        0.1829666281
 H          5.5613331203        2.2966058155       -2.0376097746
 H          3.1452717809        1.9409330916       -2.3482939869
 H         -0.2152637355       -1.2834007229        1.9761943771
 H          0.8707599048       -3.1672261010        3.1276318628
 H          3.0467204923       -4.0171144352        2.3279113611
 H          4.1163798692       -2.9844457366        0.3573709374
 H          3.0308160879       -1.1139968505       -0.8010697238
 H         -3.2629617327       -0.0458759861       -1.4178129204
 H         -4.4343032336       -2.0075445047       -2.2281570754
 H         -3.2766308659       -4.1891337836       -2.4006950935
 H         -0.8722388682       -4.3335606253       -1.8298164237
 H          0.3269845152       -2.3945657329       -1.0134923145
 H         -3.2968751589        3.3503081253       -0.4888109091
 H         -5.4553129690        3.4620990868        0.6357721274
  52
  -75.3196453900000       4.540724101588822E-003 !
 C         -5.4938114144        1.6115537294        1.0028438432
 C         -4.7001829875        0.5233131774        1.3538118196
 C         -3.3875939255        0.4558527221        0.9631113263
 C         -2.7884101644        1.4909047007        0.1829406359
 C         -1.4632595146        1.3817506557       -0.2878830956
 C         -0.7107090357        2.5057737133       -0.7252787329
 C          0.6425468403        2.4704851743       -0.6996595300
 C          1.3461771068        1.3152053930       -0.2115952926
 C          2.7960285349        1.4057630880       -0.0775362107
 C          3.4597395388        0.9633590222        1.0710240708
 C          4.8309679288        1.0701235484        1.1781936668
 C          5.5753832143        1.6163460485        0.1444621832
 C          4.9303519456        2.0699783399       -0.9957425579
 C          3.5583077790        1.9737673282       -1.1036367633
 C          0.6449241412        0.1392701482        0.0353318114
 C          1.4442428032       -1.0568527090        0.3874218529
 C          1.4030614164       -1.5722264989        1.6812943197
 C          2.1971891196       -2.6483582842        2.0307908645
 C          3.0383152006       -3.2243264510        1.0922122350
 C          3.0825169892       -2.7186624833       -0.1953997716
 C          2.2946868391       -1.6369224154       -0.5456743574
 C         -0.7412042353        0.0878465166       -0.2210361414
 C         -1.4601565102       -1.0857672410       -0.6224712419
 C         -2.5903093130       -0.9396625070       -1.4703697874
 C         -3.3370207219       -2.0206291591       -1.8731803548
 C         -3.0135064205       -3.3018700850       -1.4464057130
 C         -1.9049678918       -3.4758148866       -0.6246123055
 C         -1.1385051790       -2.4049157520       -0.2300915127
 C         -3.6142416922        2.6134463893       -0.1154543699
 C         -4.9273288381        2.6553613009        0.2691806428
 H         -6.5280743436        1.6574773496        1.3065261968
 H         -5.1209325849       -0.2750094443        1.9485132978
 H         -2.7798688865       -0.3721786970        1.2917062201
 H         -1.2121766305        3.4240266414       -0.9872920028
 H          1.2193699760        3.3444167022       -0.9607142114
 H          2.8891744424        0.5606108568        1.8930025709
 H          5.3247478601        0.7281657810        2.0761918653
 H          6.6491649598        1.6924203764        0.2283816944
 H          5.5032236008        2.4996031294       -1.8047407435
 H          3.0662969222        2.3125182218       -2.0043031542
 H          0.7444697480       -1.1201162693        2.4108182752
 H          2.1616314779       -3.0383007383        3.0377864615
 H          3.6585561307       -4.0649060151        1.3662571137
 H          3.7374780069       -3.1650883734       -0.9292854595
 H          2.3319029528       -1.2374051796       -1.5486327063
 H         -2.8387611611        0.0385988638       -1.8519089516
 H         -4.1819294342       -1.8688632995       -2.5294646606
 H         -3.6070194187       -4.1497323638       -1.7523481151
 H         -1.6412154270       -4.4669167982       -0.2839426723
 H         -0.3057630916       -2.5829952533        0.4263708679
 H         -3.2161658576        3.4283109024       -0.6987625814
 H         -5.5351334084        3.5084072444        0.0022620183
  52
  -75.3195900600000       4.282498378098905E-003 !
 C         -5.5491808681        1.5838547457        0.8510158043
 C         -4.7582178028        0.5072906210        1.2447553512
 C         -3.4278986428        0.4571611555        0.9198103711
 C         -2.8036970776        1.4962601869        0.1620957291
 C         -1.4591541333        1.4038934877       -0.2482993791
 C         -0.6984899141        2.5413426756       -0.6441939886
 C          0.6528467835        2.5122664068       -0.5894666874
 C          1.3589291122        1.3469456170       -0.1283761365
 C          2.8093799170        1.4194272059       -0.0315764085
 C          3.5086959794        0.9227609233        1.0744265432
 C          4.8836211999        1.0120897912        1.1383759700
 C          5.5999009359        1.5922763917        0.1026179448
 C          4.9211471565        2.0994536956       -0.9954736575
 C          3.5458953438        2.0229384002       -1.0592896124
 C          0.6500232599        0.1645696904        0.0937794884
 C          1.4415319215       -1.0536276841        0.3894314141
 C          1.4739818565       -1.5746352543        1.6807149729
 C          2.2508130887       -2.6810985827        1.9695007379
 C          3.0008529222       -3.2815547464        0.9713009658
 C          2.9723994133       -2.7693104901       -0.3138657813
 C          2.2009919114       -1.6577493090       -0.6034567476
 C         -0.7284302477        0.1184402975       -0.1599595222
 C         -1.4450944476       -1.0686863973       -0.5469828394
 C         -2.4987888473       -0.9446971378       -1.4855855107
 C         -3.2323197887       -2.0330928360       -1.8948456074
 C         -2.9691803101       -3.2943692613       -1.3775417689
 C         -1.9420518728       -3.4426446652       -0.4534046777
 C         -1.1885250142       -2.3635217261       -0.0515717417
 C         -3.6303277441        2.6086234020       -0.1782814096
 C         -4.9603725870        2.6336597810        0.1424074679
 H         -6.5971322286        1.6171279090        1.1050947280
 H         -5.1959321514       -0.2933299980        1.8238509647
 H         -2.8256699211       -0.3587675142        1.2864634335
 H         -1.1988427052        3.4610781308       -0.9027379727
 H          1.2286353081        3.3955276657       -0.8200328058
 H          2.9629575216        0.4947054275        1.9003891537
 H          5.4035646620        0.6296043221        2.0048212999
 H          6.6767240230        1.6534965983        0.1525076701
 H          5.4714177114        2.5542907816       -1.8065719021
 H          3.0284945702        2.4004118270       -1.9296936620
 H          0.8857117437       -1.1039438024        2.4574375204
 H          2.2719571530       -3.0758979829        2.9751225477
 H          3.6069829450       -4.1463641485        1.1974982795
 H          3.5566096700       -3.2347076419       -1.0940667508
 H          2.1810479503       -1.2535512769       -1.6051290774
 H         -2.6984855350        0.0203987810       -1.9260361474
 H         -4.0195432997       -1.9021803400       -2.6229299623
 H         -3.5532774637       -4.1472118766       -1.6886267229
 H         -1.7331882377       -4.4172942844       -0.0358434608
 H         -0.4241291159       -2.5141515132        0.6904136033
 H         -3.2154520753        3.4264296659       -0.7457322469
 H         -5.5655665796        3.4784755796       -0.1547742734
  52
  -75.3196006500000       4.330759175505726E-003 !
 C         -5.5976269155        1.5964704036        0.6485086267
 C         -4.8189558551        0.5436089836        1.1251033508
 C         -3.4725768094        0.4981338785        0.8784255183
 C         -2.8159245475        1.5149158583        0.1149041219
 C         -1.4541615210        1.4218862572       -0.2271800269
 C         -0.6817631899        2.5636687466       -0.6016902269
 C          0.6665781401        2.5405124357       -0.5134667091
 C          1.3727908879        1.3714220531       -0.0635102087
 C          2.8196093745        1.4351426615        0.0296459571
 C          3.5229055595        0.8890962774        1.1122845204
 C          4.8971230182        0.9748619409        1.1791431969
 C          5.6139497514        1.6014071670        0.1702808456
 C          4.9336201202        2.1581088831       -0.9034670214
 C          3.5589804815        2.0854222487       -0.9702662986
 C          0.6526792882        0.1823746492        0.1332757833
 C          1.4407519278       -1.0587837321        0.3389267741
 C          1.5892455148       -1.6139500854        1.6067141754
 C          2.3590900783       -2.7477501866        1.7889795842
 C          2.9859475729       -3.3420753016        0.7060973598
 C          2.8402506708       -2.7972521366       -0.5573051658
 C          2.0748883334       -1.6589919308       -0.7400496055
 C         -0.7204381994        0.1451058890       -0.0995289798
 C         -1.4425917117       -1.0649730379       -0.4279102882
 C         -2.4379779920       -1.0051713037       -1.4275449611
 C         -3.1574196616       -2.1203614027       -1.7916814034
 C         -2.9327536061       -3.3377374969       -1.1646426072
 C         -1.9687493179       -3.4166811827       -0.1681496346
 C         -1.2330416434       -2.3096228756        0.1922039729
 C         -3.6330557931        2.6098583421       -0.3042798063
 C         -4.9784827700        2.6301880322       -0.0594939032
 H         -6.6587475191        1.6257333227        0.8404570340
 H         -5.2806581597       -0.2397892239        1.7091944832
 H         -2.8823413532       -0.2920937974        1.3138601871
 H         -1.1788164699        3.4816568223       -0.8718294914
 H          1.2415628853        3.4292794403       -0.7247185932
 H          2.9786422574        0.4311662607        1.9223922138
 H          5.4168663748        0.5559548439        2.0287524273
 H          6.6907187027        1.6613087681        0.2226603461
 H          5.4838950638        2.6485655706       -1.6938139325
 H          3.0430512459        2.5005546668       -1.8241955128
 H          1.0971465376       -1.1496069764        2.4517617510
 H          2.4712591670       -3.1686573247        2.7778860991
 H          3.5876926311       -4.2274737998        0.8491331153
 H          3.3276600311       -3.2574791531       -1.4043556928
 H          1.9637516187       -1.2292259738       -1.7251622202
 H         -2.6072726899       -0.0730249828       -1.9456625532
 H         -3.9023236080       -2.0445217947       -2.5706246794
 H         -3.5018695862       -4.2112153691       -1.4446345134
 H         -1.7949061604       -4.3551681613        0.3385041522
 H         -0.5214949719       -2.3965526267        0.9951719936
 H         -3.1952426649        3.4119513256       -0.8767896217
 H         -5.5747027676        3.4568591537       -0.4195473048
  52
  -75.3195794900000       4.234865011142268E-003 !
 C         -5.6018075819        1.6049168571       -0.2908583400
 C         -4.8808061315        2.0061712892       -1.4062699742
 C         -3.5052076390        1.9184823341       -1.4149491045
 C         -2.8070349713        1.4080611626       -0.3107203192
 C         -1.3574648568        1.3298624590       -0.3374480289
 C         -0.6261500347        2.4310932397       -0.9027685314
 C          0.7250128259        2.4520405824       -0.9112714097
 C          1.4692254048        1.3762097473       -0.3369062971
 C          2.7973914304        1.5285190862        0.1014306110
 C          3.3987646365        0.6080060023        1.0173139611
 C          4.7200741241        0.7024893499        1.3651748549
 C          5.5249491627        1.7150920207        0.8471302920
 C          4.9558302067        2.6601752172       -0.0101889204
 C          3.6355433138        2.5897660319       -0.3603241234
 C          0.7296530514        0.1160272188       -0.1073266146
 C          1.4718232886       -1.1162133246       -0.2534759018
 C          1.2198285754       -2.2918481951        0.4767463110
 C          1.9886416037       -3.4201146819        0.2962590985
 C          3.0280090879       -3.4350263190       -0.6247341151
 C          3.2917589270       -2.2897535661       -1.3627627144
 C          2.5402213185       -1.1522052724       -1.1770501396
 C         -0.6549612147        0.1770525281        0.0451255843
 C         -1.4629095249       -1.0250905404        0.3691502854
 C         -2.0786026417       -1.7384867364       -0.6501588666
 C         -2.8674080676       -2.8371380534       -0.3579223267
 C         -3.0557154394       -3.2285617177        0.9557179387
 C         -2.4479251885       -2.5203516888        1.9793486206
 C         -1.6545230858       -1.4261452047        1.6882993693
 C         -3.5508442636        1.0170026234        0.8107434387
 C         -4.9256869577        1.1178924011        0.8179685700
 H         -6.6791409239        1.6765889946       -0.2841825615
 H         -5.3995130422        2.3865781952       -2.2746858951
 H         -2.9568321942        2.2105151394       -2.2990104840
 H         -1.1871737207        3.2772399725       -1.2692219958
 H          1.2393829526        3.3264904666       -1.2764755528
 H          2.7833275544       -0.1448940656        1.4828066769
 H          5.1397142613       -0.0091057780        2.0617743760
 H          6.5663548308        1.7830656391        1.1201380007
 H          5.5708758472        3.4576182905       -0.4027175207
 H          3.2381373892        3.3230759480       -1.0433675859
 H          0.4464880158       -2.3044668978        1.2251829932
 H          1.7819183796       -4.3009041731        0.8872673665
 H          3.6240936752       -4.3245491361       -0.7615814767
 H          4.0932833397       -2.2876543867       -2.0873129621
 H          2.7429399384       -0.2797358996       -1.7800635497
 H         -1.9345779784       -1.4279478895       -1.6749784404
 H         -3.3399914020       -3.3864494393       -1.1590115895
 H         -3.6757571891       -4.0829756529        1.1837873960
 H         -2.5933242929       -2.8212529438        3.0069798929
 H         -1.1790004110       -0.8716637543        2.4871836242
 H         -3.0378627595        0.6686136593        1.6927745182
 H         -5.4778437283        0.8200297813        1.6976842764
