  52
        -75.32345353
 C         -5.6659845593        1.6371147289       -0.2400174077
 C         -4.9768285734        0.6140193042       -0.8859981361
 C         -3.6076837366        0.5435588376       -0.8290964378
 C         -2.8484914736        1.5028992028       -0.1081546624
 C         -1.4319467446        1.4395942964        0.0160409002
 C         -0.6718692911        2.6591276980        0.0323687151
 C          0.6734474477        2.6590230653       -0.0705051360
 C          1.4341680525        1.4405365571       -0.0325481123
 C          2.8478555704        1.5037128069        0.1059765762
 C          3.5991904209        0.5439516801        0.8367937856
 C          4.9674176139        0.6119549522        0.9070922098
 C          5.6651639089        1.6326539860        0.2658700251
 C          4.9513276654        2.6066949704       -0.4312828602
 C          3.5828903320        2.5607637264       -0.4974236157
 C          0.6885024253        0.2036922625       -0.0214796133
 C          1.4262339304       -1.0672236852       -0.0974535780
 C          1.2345738184       -2.0807006834        0.8420368403
 C          1.9368900283       -3.2655612954        0.7472525309
 C          2.8356511532       -3.4649584519       -0.2894553699
 C          3.0334656219       -2.4658980236       -1.2279226573
 C          2.3401318553       -1.2749359745       -1.1315402553
 C         -0.6875606558        0.2043578864        0.0132727774
 C         -1.4260159833       -1.0669159510        0.0931469546
 C         -1.2445637354       -2.0763929259       -0.8521284839
 C         -1.9479680099       -3.2606447471       -0.7554447106
 C         -2.8368201205       -3.4625812313        0.2891235134
 C         -3.0234649171       -2.4674000043        1.2339428261
 C         -2.3290709300       -1.2770830590        1.1356009072
 C         -3.5744935795        2.5615186001        0.5012048048
 C         -4.9438497455        2.6105602067        0.4484117811
 H         -6.7429306685        1.6857373067       -0.2849703161
 H         -5.5247372316       -0.1246883410       -1.4532176039
 H         -3.0938898936       -0.2168302249       -1.3946482526
 H         -1.2054952804        3.5971946747        0.0367356046
 H          1.2055283807        3.5976000957       -0.0900105649
 H          3.0783065436       -0.2133571526        1.3999556023
 H          5.5083748003       -0.1265812320        1.4812713368
 H          6.7417456418        1.6793363052        0.3212339376
 H          5.4844510726        3.4036253915       -0.9301684294
 H          3.0575146962        3.3008319726       -1.0818106999
 H          0.5474966405       -1.9240239280        1.6608536410
 H          1.7853636584       -4.0380515622        1.4870457153
 H          3.3807791805       -4.3943380673       -0.3627402366
 H          3.7326512819       -2.6150978327       -2.0378065615
 H          2.4897168466       -0.4997801559       -1.8694188342
 H         -0.5638682041       -1.9175446465       -1.6759616248
 H         -1.8048980536       -4.0304545243       -1.4998281100
 H         -3.3826290098       -4.3913810962        0.3640918533
 H         -3.7149244521       -2.6188476397        2.0501003569
 H         -2.4706196956       -0.5041166325        1.8774146699
 H         -3.0411604730        3.3017420919        1.0781301913
 H         -5.4703242663        3.4093827042        0.9513447181
  52
        -75.32315180
 C         -5.6570984830        1.6436283942       -0.0329515890
 C         -4.9367847162        2.5613825125       -0.7969608569
 C         -3.5686438488        2.5049727577       -0.8570293961
 C         -2.8376689823        1.4924499491       -0.1747125658
 C         -1.4237045080        1.4192141669       -0.2834125847
 C         -0.6578646432        2.6271104049       -0.4216519989
 C          0.6790698907        2.6404001351       -0.2417747382
 C          1.4313539949        1.4298303926       -0.0561612107
 C          2.8551000724        1.4854220938       -0.0954835283
 C          3.6549172657        0.4525107338       -0.6481888757
 C          5.0252187154        0.5313057223       -0.6435469417
 C          5.6741077969        1.6348187642       -0.0963827306
 C          4.9123830498        2.6747728083        0.4319328910
 C          3.5417605597        2.6155756289        0.4209803968
 C          0.6873193065        0.1999178269        0.0276502123
 C          1.4139838827       -1.0460481632        0.3285701070
 C          2.1951677198       -1.1115632631        1.4821891587
 C          2.8646038434       -2.2741189848        1.8128401532
 C          2.7735093691       -3.3861953838        0.9925836821
 C          2.0103916134       -3.3271560571       -0.1632479329
 C          1.3326431118       -2.1696315846       -0.4931549359
 C         -0.6817639841        0.1876490517       -0.1155957385
 C         -1.4180596975       -1.0835414339       -0.1765350968
 C         -2.2444787487       -1.3320457549       -1.2743788154
 C         -2.9290359153       -2.5264464618       -1.3850896298
 C         -2.8120796253       -3.4896620708       -0.3966332909
 C         -2.0068373775       -3.2474868434        0.7059711258
 C         -1.3124622351       -2.0590980722        0.8160987350
 C         -3.5976370725        0.5862365417        0.6155436459
 C         -4.9652235146        0.6648340850        0.6773443780
 H         -6.7332318123        1.7012676908        0.0196725314
 H         -5.4654276428        3.3230211147       -1.3526856924
 H         -3.0403065578        3.1997644564       -1.4919516709
 H         -1.1810591685        3.5566043577       -0.5842730058
 H          1.2178209647        3.5719930654       -0.3229131330
 H          3.1760298849       -0.3808419906       -1.1360434040
 H          5.6057010634       -0.2659127754       -1.0854304507
 H          6.7517465246        1.6907639977       -0.0937200904
 H          5.4071568337        3.5350219150        0.8602469601
 H          2.9751144331        3.4137307813        0.8763736516
 H          2.2599853757       -0.2464192951        2.1266203514
 H          3.4593740486       -2.3126273379        2.7139230523
 H          3.2973135457       -4.2947728827        1.2505530242
 H          1.9442420101       -4.1892352567       -0.8110243249
 H          0.7482299521       -2.1248455236       -1.4008952241
 H         -2.3294988868       -0.5854172634       -2.0510587792
 H         -3.5566551690       -2.7068554337       -2.2457628726
 H         -3.3482557398       -4.4232239119       -0.4822438498
 H         -1.9214679580       -3.9908417883        1.4852997977
 H         -0.6996695856       -1.8710799050        1.6856902513
 H         -3.0824423175       -0.1344403076        1.2295263186
 H         -5.5107584294       -0.0290230772        1.3008970807
  52
        -75.32174657
 C         -5.2304664696        1.5820801897        1.6379485943
 C         -4.4014942140        0.4858724057        1.8375458503
 C         -3.1828736195        0.4082509082        1.2045001034
 C         -2.7360538328        1.4402523435        0.3481622197
 C         -1.4639228015        1.3339727475       -0.2949752454
 C         -0.7527974063        2.4253361633       -0.7912312968
 C          0.6088836831        2.3435819473       -0.9777971062
 C          1.3431382281        1.2200424936       -0.4961640888
 C          2.7917706200        1.4031398917       -0.3061341169
 C          3.3766466937        1.2275769726        0.9463186217
 C          4.7324241528        1.4286625434        1.1187396011
 C          5.5242814704        1.8080454891        0.0465962962
 C          4.9497171791        1.9959491995       -1.1991306175
 C          3.5918905732        1.8013931480       -1.3738019369
 C          0.6722780446        0.0809490179       -0.1186401760
 C          1.3382683303       -1.0516774139        0.5186916181
 C          0.7342676344       -1.6597674375        1.6231845611
 C          1.3466243175       -2.7140733381        2.2700980813
 C          2.5684061489       -3.1912952015        1.8226708926
 C          3.1704310248       -2.6076098661        0.7182862314
 C          2.5666577915       -1.5481208300        0.0719817185
 C         -0.7596851221        0.0387168982       -0.3942708527
 C         -1.3850793010       -1.0596948413       -1.0070518961
 C         -2.7455133754       -0.9902750003       -1.4441036044
 C         -3.4018559635       -2.0948417801       -1.9206611730
 C         -2.7526026921       -3.3219170364       -2.0299692962
 C         -1.4002950595       -3.3997401178       -1.6987631907
 C         -0.7245264759       -2.3061994253       -1.2266035341
 C         -3.5894244158        2.5491262043        0.1724382080
 C         -4.8124509050        2.6088815921        0.7989807172
 H         -6.1902923357        1.6374150943        2.1288241807
 H         -4.7163647361       -0.3136754065        2.4926370368
 H         -2.5436442572       -0.4454970765        1.3723367151
 H         -1.2362791161        3.3828865516       -0.9139463939
 H          1.1611878568        3.2149666095       -1.2957141801
 H          2.7594019150        0.9405206553        1.7851046469
 H          5.1748207159        1.2905393549        2.0945178981
 H          6.5848006433        1.9601973252        0.1829666281
 H          5.5613331203        2.2966058155       -2.0376097746
 H          3.1452717809        1.9409330916       -2.3482939869
 H         -0.2152637355       -1.2834007229        1.9761943771
 H          0.8707599048       -3.1672261010        3.1276318628
 H          3.0467204923       -4.0171144352        2.3279113611
 H          4.1163798692       -2.9844457366        0.3573709374
 H          3.0308160879       -1.1139968505       -0.8010697238
 H         -3.2629617327       -0.0458759861       -1.4178129204
 H         -4.4343032336       -2.0075445047       -2.2281570754
 H         -3.2766308659       -4.1891337836       -2.4006950935
 H         -0.8722388682       -4.3335606253       -1.8298164237
 H          0.3269845152       -2.3945657329       -1.0134923145
 H         -3.2968751589        3.3503081253       -0.4888109091
 H         -5.4553129690        3.4620990868        0.6357721274
  52
        -75.31964539
 C         -5.4938114144        1.6115537294        1.0028438432
 C         -4.7001829875        0.5233131774        1.3538118196
 C         -3.3875939255        0.4558527221        0.9631113263
 C         -2.7884101644        1.4909047007        0.1829406359
 C         -1.4632595146        1.3817506557       -0.2878830956
 C         -0.7107090357        2.5057737133       -0.7252787329
 C          0.6425468403        2.4704851743       -0.6996595300
 C          1.3461771068        1.3152053930       -0.2115952926
 C          2.7960285349        1.4057630880       -0.0775362107
 C          3.4597395388        0.9633590222        1.0710240708
 C          4.8309679288        1.0701235484        1.1781936668
 C          5.5753832143        1.6163460485        0.1444621832
 C          4.9303519456        2.0699783399       -0.9957425579
 C          3.5583077790        1.9737673282       -1.1036367633
 C          0.6449241412        0.1392701482        0.0353318114
 C          1.4442428032       -1.0568527090        0.3874218529
 C          1.4030614164       -1.5722264989        1.6812943197
 C          2.1971891196       -2.6483582842        2.0307908645
 C          3.0383152006       -3.2243264510        1.0922122350
 C          3.0825169892       -2.7186624833       -0.1953997716
 C          2.2946868391       -1.6369224154       -0.5456743574
 C         -0.7412042353        0.0878465166       -0.2210361414
 C         -1.4601565102       -1.0857672410       -0.6224712419
 C         -2.5903093130       -0.9396625070       -1.4703697874
 C         -3.3370207219       -2.0206291591       -1.8731803548
 C         -3.0135064205       -3.3018700850       -1.4464057130
 C         -1.9049678918       -3.4758148866       -0.6246123055
 C         -1.1385051790       -2.4049157520       -0.2300915127
 C         -3.6142416922        2.6134463893       -0.1154543699
 C         -4.9273288381        2.6553613009        0.2691806428
 H         -6.5280743436        1.6574773496        1.3065261968
 H         -5.1209325849       -0.2750094443        1.9485132978
 H         -2.7798688865       -0.3721786970        1.2917062201
 H         -1.2121766305        3.4240266414       -0.9872920028
 H          1.2193699760        3.3444167022       -0.9607142114
 H          2.8891744424        0.5606108568        1.8930025709
 H          5.3247478601        0.7281657810        2.0761918653
 H          6.6491649598        1.6924203764        0.2283816944
 H          5.5032236008        2.4996031294       -1.8047407435
 H          3.0662969222        2.3125182218       -2.0043031542
 H          0.7444697480       -1.1201162693        2.4108182752
 H          2.1616314779       -3.0383007383        3.0377864615
 H          3.6585561307       -4.0649060151        1.3662571137
 H          3.7374780069       -3.1650883734       -0.9292854595
 H          2.3319029528       -1.2374051796       -1.5486327063
 H         -2.8387611611        0.0385988638       -1.8519089516
 H         -4.1819294342       -1.8688632995       -2.5294646606
 H         -3.6070194187       -4.1497323638       -1.7523481151
 H         -1.6412154270       -4.4669167982       -0.2839426723
 H         -0.3057630916       -2.5829952533        0.4263708679
 H         -3.2161658576        3.4283109024       -0.6987625814
 H         -5.5351334084        3.5084072444        0.0022620183
  52
        -75.31960065
 C         -5.5976269155        1.5964704036        0.6485086267
 C         -4.8189558551        0.5436089836        1.1251033508
 C         -3.4725768094        0.4981338785        0.8784255183
 C         -2.8159245475        1.5149158583        0.1149041219
 C         -1.4541615210        1.4218862572       -0.2271800269
 C         -0.6817631899        2.5636687466       -0.6016902269
 C          0.6665781401        2.5405124357       -0.5134667091
 C          1.3727908879        1.3714220531       -0.0635102087
 C          2.8196093745        1.4351426615        0.0296459571
 C          3.5229055595        0.8890962774        1.1122845204
 C          4.8971230182        0.9748619409        1.1791431969
 C          5.6139497514        1.6014071670        0.1702808456
 C          4.9336201202        2.1581088831       -0.9034670214
 C          3.5589804815        2.0854222487       -0.9702662986
 C          0.6526792882        0.1823746492        0.1332757833
 C          1.4407519278       -1.0587837321        0.3389267741
 C          1.5892455148       -1.6139500854        1.6067141754
 C          2.3590900783       -2.7477501866        1.7889795842
 C          2.9859475729       -3.3420753016        0.7060973598
 C          2.8402506708       -2.7972521366       -0.5573051658
 C          2.0748883334       -1.6589919308       -0.7400496055
 C         -0.7204381994        0.1451058890       -0.0995289798
 C         -1.4425917117       -1.0649730379       -0.4279102882
 C         -2.4379779920       -1.0051713037       -1.4275449611
 C         -3.1574196616       -2.1203614027       -1.7916814034
 C         -2.9327536061       -3.3377374969       -1.1646426072
 C         -1.9687493179       -3.4166811827       -0.1681496346
 C         -1.2330416434       -2.3096228756        0.1922039729
 C         -3.6330557931        2.6098583421       -0.3042798063
 C         -4.9784827700        2.6301880322       -0.0594939032
 H         -6.6587475191        1.6257333227        0.8404570340
 H         -5.2806581597       -0.2397892239        1.7091944832
 H         -2.8823413532       -0.2920937974        1.3138601871
 H         -1.1788164699        3.4816568223       -0.8718294914
 H          1.2415628853        3.4292794403       -0.7247185932
 H          2.9786422574        0.4311662607        1.9223922138
 H          5.4168663748        0.5559548439        2.0287524273
 H          6.6907187027        1.6613087681        0.2226603461
 H          5.4838950638        2.6485655706       -1.6938139325
 H          3.0430512459        2.5005546668       -1.8241955128
 H          1.0971465376       -1.1496069764        2.4517617510
 H          2.4712591670       -3.1686573247        2.7778860991
 H          3.5876926311       -4.2274737998        0.8491331153
 H          3.3276600311       -3.2574791531       -1.4043556928
 H          1.9637516187       -1.2292259738       -1.7251622202
 H         -2.6072726899       -0.0730249828       -1.9456625532
 H         -3.9023236080       -2.0445217947       -2.5706246794
 H         -3.5018695862       -4.2112153691       -1.4446345134
 H         -1.7949061604       -4.3551681613        0.3385041522
 H         -0.5214949719       -2.3965526267        0.9951719936
 H         -3.1952426649        3.4119513256       -0.8767896217
 H         -5.5747027676        3.4568591537       -0.4195473048
