  106
       -165.28316727
 O         -0.0046624661        4.9192620242        0.0097128819
 C          0.0034744452        3.7049286991        0.0345363920
 C         -1.2553760996        2.9168679703        0.0516646458
 C         -1.3647541766        1.7166605335        0.7518659041
 C         -2.5575504818        1.0213015362        0.7571925472
 C         -3.6570883964        1.5117782641        0.0583557038
 N         -4.8725250287        0.7853556202        0.0418072985
 C         -5.6279751260        0.6939248023        1.2050422071
 C         -5.2169069962        1.3475391140        2.3698948946
 C         -5.9543809261        1.2531854077        3.5323572380
 C         -7.1240489125        0.5134753499        3.5594193310
 C         -7.5544688708       -0.1076297034        2.4024811412
 C         -6.8267262786       -0.0228980616        1.2246510538
 C         -7.3852628837       -0.6762007942       -0.0155264005
 C         -8.7403573358       -0.0832873832       -0.3546474123
 C         -9.0395065349        1.2186809765       -0.6882573441
 C        -10.3601090014        1.5440102182       -0.9675968598
 C        -11.3547929146        0.5797842837       -0.9111798214
 C        -11.0576552517       -0.7314108536       -0.5748682413
 C         -9.7420968867       -1.0618850943       -0.2957766109
 C         -9.1292571216       -2.3279738207        0.0776951271
 C         -9.6775868144       -3.5856365310        0.2660482138
 C         -8.8374025828       -4.6283905640        0.6228965961
 C         -7.4765802291       -4.4210453508        0.7890486835
 C         -6.9213297043       -3.1621989620        0.6015073248
 C         -7.7525192330       -2.1231664013        0.2468541905
 C         -6.4552191188       -0.5676351199       -1.1985962762
 C         -6.8118259779       -1.1966556114       -2.3820696598
 C         -5.9976466430       -1.1452883457       -3.4976561060
 C         -4.7955200550       -0.4637635223       -3.4235357533
 C         -4.4247166487        0.1683280560       -2.2540265795
 C         -5.2548100357        0.1434358540       -1.1300897198
 C         -3.5580386441        2.7199736599       -0.6257557880
 C         -2.3692268130        3.4202803127       -0.6180552450
 C          1.2725989379        2.9345231968        0.0432426982
 C          1.3799326083        1.6787756693       -0.5532197938
 C          2.5863592768        1.0083335319       -0.5473210534
 C          3.7028509477        1.5780106544        0.0587655488
 N          4.9301376938        0.8728860472        0.0742090652
 C          5.9893617803        1.3278842395       -0.7034336951
 C          5.8452898460        2.4649076388       -1.5029384952
 C          6.8943583640        2.9287078252       -2.2699895631
 C          8.1088568287        2.2648387049       -2.2663616862
 C          8.2483168965        1.1207693490       -1.5041092055
 C          7.2045313168        0.6394503948       -0.7275354899
 C          7.4067899416       -0.6488585551        0.0319367740
 C          8.6832409551       -0.6052110729        0.8479049011
 C          8.9974081536        0.2352456852        1.8925642704
 C         10.2377199657        0.0996576308        2.5018946303
 C         11.1402883330       -0.8597447191        2.0687828569
 C         10.8277884692       -1.7081624421        1.0185246823
 C          9.5917890320       -1.5779490836        0.4074165893
 C          8.9868772240       -2.3086321295       -0.6962020070
 C          9.4632051870       -3.3564999638       -1.4662889699
 C          8.6514543341       -3.8663123567       -2.4669468437
 C          7.3890382769       -3.3408252243       -2.6965708202
 C          6.9065667835       -2.2897972670       -1.9281909882
 C          7.7097985348       -1.7813557383       -0.9320766343
 C          6.2251279090       -1.0020577321        0.9006755382
 C          6.3168751847       -2.1121806632        1.7270577388
 C          5.2721224665       -2.4824548109        2.5524478674
 C          4.1178242940       -1.7188067658        2.5625000134
 C          4.0092222825       -0.6110607371        1.7468453240
 C          5.0513049026       -0.2451813078        0.8902989460
 C          3.6042348819        2.8382819297        0.6423703368
 C          2.4010781819        3.5128651552        0.6229219444
 H         -0.5203559672        1.3358599795        1.3072383405
 H         -2.6471496877        0.0919766338        1.3002685687
 H         -4.3163954476        1.9422651311        2.3619399489
 H         -5.6125071348        1.7653448849        4.4193923839
 H         -7.7014173113        0.4331909380        4.4673366129
 H         -8.4776234570       -0.6688775405        2.4028468411
 H         -8.2639367486        1.9697894932       -0.7310709124
 H        -10.6156122500        2.5596248797       -1.2319024983
 H        -12.3757715797        0.8552068367       -1.1324968201
 H        -11.8369962732       -1.4779208907       -0.5322672722
 H        -10.7369378665       -3.7516572905        0.1369452873
 H         -9.2471016895       -5.6166300646        0.7734302173
 H         -6.8407327083       -5.2487501266        1.0670468812
 H         -5.8605208783       -3.0018479942        0.7300403001
 H         -7.7466998032       -1.7366484543       -2.4216372128
 H         -6.2942246111       -1.6382444678       -4.4103954651
 H         -4.1365272407       -0.4243914154       -4.2781233618
 H         -3.4772772569        0.6833979897       -2.2096472404
 H         -4.4174212592        3.0998093191       -1.1579516142
 H         -2.2815149929        4.3640640859       -1.1349653492
 H          0.5254414859        1.2394018250       -1.0461571840
 H          2.6757099718        0.0368196779       -1.0105873119
 H          4.9006333847        2.9858074610       -1.5300344305
 H          6.7572530287        3.8118888562       -2.8758432498
 H          8.9334429951        2.6258343927       -2.8611153332
 H          9.1831968252        0.5794430905       -1.5096268443
 H          8.2942733104        0.9827560105        2.2305306954
 H         10.5033298409        0.7491232568        3.3230495375
 H         12.0998712271       -0.9464285498        2.5575500450
 H         11.5335313321       -2.4543811680        0.6846161615
 H         10.4458557073       -3.7691292149       -1.2913170520
 H          9.0058245146       -4.6841557210       -3.0774578949
 H          6.7741051297       -3.7543568851       -3.4824187181
 H          5.9230898686       -1.8799894003       -2.1082473297
 H          7.2287784106       -2.6913879247        1.7183901603
 H          5.3614596952       -3.3511507191        3.1860620717
 H          3.2961666070       -1.9812025514        3.2123135655
 H          3.1089591944       -0.0163817681        1.7790249854
 H          4.4753863115        3.2786472509        1.1041976924
 H          2.3098020761        4.4924715511        1.0675938680
