106
 energy: -165.209333532701 gnorm: 0.000082756307 xtb: 6.7.1 (edcfbbe)
O            0.00356442298274        4.52402636514570       -0.05088973457611
C           -0.00156477858218        3.25495677433997       -0.04011600180480
C           -1.26710586793008        2.54854362954449       -0.04051341564833
C           -1.43924479314275        1.25618345972873        0.48668746870102
C           -2.67804485801396        0.65871168077256        0.48983262108945
C           -3.78780198454699        1.33408216145702       -0.01696909206577
N           -5.06434491874219        0.70121393716268       -0.01692885417588
C           -5.97111515046870        1.01910314711867        0.97443014350385
C           -5.62535267510107        1.93548363710548        1.97599449082925
C           -6.52362980378762        2.26755004818558        2.96631214426019
C           -7.78578686934175        1.69301980705891        2.98747771052467
C           -8.13054258397675        0.77693600916456        2.01140783490437
C           -7.24090671816189        0.42849098549149        1.00639562584560
C           -7.66653385901881       -0.58877426629886       -0.02010544653650
C           -8.95465895408538       -0.15888321370411       -0.69942257598749
C           -9.17327007893179        0.95595432140164       -1.47723646397090
C          -10.44233484766628        1.15552986697722       -2.00458951936284
C          -11.46492531447947        0.25345647396498       -1.75378023396991
C          -11.24782358411373       -0.86983628528638       -0.97170648478179
C           -9.98425031599474       -1.07471739542089       -0.44303356124522
C           -9.45778672936589       -2.13895340833081        0.39831908776214
C          -10.06106171057666       -3.26876929869134        0.92524675854519
C           -9.30019964318228       -4.12261775075795        1.70793167038999
C           -7.96343101329503       -3.85575545323992        1.96109503451113
C           -7.35263448538003       -2.72474636162933        1.43553337696433
C           -8.10581631976145       -1.87480355956058        0.65712517922164
C           -6.59743194145679       -0.86492460930820       -1.04479910066132
C           -6.85744011996154       -1.78092178769487       -2.05290771100462
C           -5.91870501332984       -2.05809161980314       -3.02895999070167
C           -4.69785190881532       -1.40054204355518       -3.00506299369605
C           -4.41979912986242       -0.48750476439846       -2.01163318063350
C           -5.35913871467105       -0.21112024183776       -1.00980618499187
C           -3.64417812188473        2.63640693559308       -0.49869846434887
C           -2.41075230876338        3.23619820829606       -0.49797034486674
C            1.25808834319085        2.53811298919339       -0.02771878948502
C            1.41950102436467        1.23560908969399       -0.53296833983357
C            2.65367218657364        0.62855794793357       -0.52774615302885
C            3.76927522334132        1.30378763645560       -0.03364333945757
N            5.04291130810099        0.66493862075719       -0.02664307072324
C            5.94308050788761        0.95559094181874       -1.03224302748443
C            5.58477134399892        1.83261048454617       -2.06417523500551
C            6.47478946760904        2.13479421117459       -3.07135072531443
C            7.74094727320868        1.56876112477884       -3.07930025808782
C            8.09895641126027        0.69299460347683       -2.07148550574727
C            7.21776109221442        0.37500384122684       -1.04911879222773
C            7.66260146698655       -0.58695236104359        0.02148962665404
C            8.91051357870257       -0.06839519696213        0.71540789095663
C            9.05484298240366        1.08551811407422        1.45241994706703
C           10.29845103011925        1.36723841557034        2.00238989217516
C           11.36906086560420        0.50666752323869        1.81389558146795
C           11.22661558559948       -0.65567596328382        1.07283475415123
C            9.98886951630129       -0.94229751556678        0.52153750581852
C            9.53654397395632       -2.06245636054686       -0.28978729837142
C           10.20691006863814       -3.18127941475428       -0.75552905534412
C            9.50902746012344       -4.10069755244593       -1.52250784157844
C            8.16853952284053       -3.90883058595943       -1.82009486584852
C            7.49064737078110       -2.78920087120648       -1.35593899177630
C            8.18103361649438       -1.87408873718432       -0.59325779278450
C            6.58348255688923       -0.87182927493963        1.03333155206260
C            6.84425122823896       -1.77330215418232        2.05422051318339
C            5.89983758820438       -2.04938621470334        3.02511029442121
C            4.67289535017903       -1.40416336976782        2.98381553036465
C            4.39417797995002       -0.50511687417087        1.97788045701928
C            5.33890731391778       -0.23103513694608        0.98053220129356
C            3.63625600236981        2.61489065792182        0.42653265806469
C            2.40748045916266        3.22415433300765        0.41738106285725
H           -0.60378903692802        0.74028718680541        0.93434804363080
H           -2.80636626401895       -0.33401606593055        0.89833957180986
H           -4.64317479807399        2.38122600845445        1.96918314188612
H           -6.23693343849911        2.97754732319188        3.72716635728224
H           -8.49216789179217        1.95271165421418        3.76054539827573
H           -9.10796278481453        0.31691871712420        2.02354497162176
H           -8.37674618967649        1.65899351425851       -1.67332597822050
H          -10.63467597349454        2.02372075459974       -2.61733617868117
H          -12.44422403085578        0.42934695001727       -2.17440851252828
H          -12.04736583241693       -1.56975782142346       -0.77935302828210
H          -11.10201621787857       -3.48065081572704        0.73121384055421
H           -9.75426538962136       -5.00854105775118        2.12730918571743
H           -7.39028180484835       -4.53515856047619        2.57447405311216
H           -6.31111305000932       -2.51680128564630        1.63370375904094
H           -7.81536379895831       -2.28015822323943       -2.06778486448129
H           -6.13876324326016       -2.77511882249695       -3.80452868863503
H           -3.95903220610674       -1.59899578686794       -3.76679041002940
H           -3.47160132160613        0.02674153936459       -2.00263611311697
H           -4.51293557566449        3.16096341100106       -0.86967779794625
H           -2.28210349646778        4.24428210773696       -0.86105583986370
H            0.57952753323535        0.71872559178776       -0.97098839218257
H            2.77389121850754       -0.37161410613732       -0.92027557684777
H            4.59942892221597        2.27139895288778       -2.06729756240708
H            6.17852557787680        2.81467295497599       -3.85568669941786
H            8.44084353560986        1.80510842076882       -3.86564643799116
H            9.08070687990461        0.24213140294215       -2.07123960339632
H            8.22092842691517        1.75633318652803        1.60001577929041
H           10.43289890826878        2.26734151914215        2.58372084603885
H           12.32728752239146        0.74635377907046        2.25120192936780
H           12.06344537764418       -1.32286512880781        0.92884845719984
H           11.25100253386096       -3.33485756431662       -0.52658954475313
H           10.01584077307561       -4.97924048682818       -1.89428602269613
H            7.64519173477980       -4.63851825390574       -2.42007657163845
H            6.44620237597934       -2.63983333763358       -1.58846413719279
H            7.80750937633893       -2.26149078649967        2.08376406271987
H            6.12052420151539       -2.75536056640194        3.81058295632936
H            3.92974854298449       -1.60143860829089        3.74163319952759
H            3.44103092499110       -0.00055142815844        1.95515224847939
H            4.50957255338691        3.13905238055689        0.78719226613422
H            2.28723258690843        4.23915443470701        0.76369109720143
