62
 energy: -101.903718331061 gnorm: 0.000141667070 xtb: 6.7.1 (edcfbbe)
O           -0.07978320391466       -4.01269365098105        1.32208424339407
C           -0.84675044211857       -3.27725909564973        0.65885253275167
C           -2.10728014435247       -3.71908852650354        0.16491421391756
C           -2.92721970014166       -3.10403499057433       -0.81828027795203
N           -4.06026938011368       -3.60140098711725       -1.22381124815489
C           -4.47936019344327       -4.75765486723505       -0.71499977156422
N           -3.74635364619746       -5.44529700533341        0.15670969364215
C           -2.61408521207914       -4.98939432049307        0.57903280137685
C           -0.41934626640817       -1.88673795589184        0.36220531448119
C           -1.30313667849511       -0.80745552018491        0.37987449700341
C           -0.82667995014229        0.48225112981396        0.16839681236962
N           -1.70814210478927        1.56877624837139        0.24083822520624
C           -2.90503141173256        1.69415312048978       -0.43556051337720
C           -3.46993278516341        0.86457378151727       -1.39301104231567
C           -4.68227982570739        1.23924192345775       -1.94031776779371
C           -5.31704906112462        2.41784368052848       -1.55687735401609
C           -4.74597403669417        3.26321880166308       -0.62399813320571
C           -3.53082236380750        2.90492182052830       -0.05881530131194
C           -2.66316668490494        3.53032786963548        0.90242274960071
C           -2.73931666559627        4.70731615291214        1.63266794881472
C           -1.71595020827251        5.00733414502058        2.51211474583027
C           -0.63620277184500        4.14373902402533        2.67713819679148
C           -0.53813246526068        2.96576546427979        1.96032772752382
C           -1.55105296457639        2.67123132531475        1.05881641373067
C            0.52958005189087        0.71034881421234       -0.04355821749411
C            1.41511133215954       -0.36438806127192       -0.03019328939491
N            2.78251511267165       -0.15108471936049       -0.22974721264607
C            3.34811095510574        0.58990543459100       -1.24819876818344
C            2.73886236588763        1.25303990372022       -2.30434180105834
C            3.55245755151244        1.91032115651509       -3.20853481979009
C            4.93842290472182        1.90415623909484       -3.07693241522700
C            5.55208853633937        1.22414730239951       -2.04103271490192
C            4.75649003250561        0.55725583187521       -1.12165663412784
C            5.04421843980306       -0.24768755479210        0.03536984699405
C            6.22086360762730       -0.62501206712208        0.66537737123737
C            6.13978662476109       -1.41089309220160        1.80019098766897
C            4.90676220979460       -1.80592237392349        2.31260740739852
C            3.72052185395452       -1.44060836048603        1.70371308180268
C            3.79776167297471       -0.67130297465543        0.55083144263339
C            0.94128036816020       -1.65423293320597        0.16674056717545
H           -2.60534446215049       -2.19366136685829       -1.30773168955325
H           -5.42609382785640       -5.15690071338679       -1.03345403071280
H           -2.02312621060109       -5.57807480312750        1.26913241903877
H           -2.34428119758782       -0.94763913280974        0.62732860865779
H           -2.97622272517071       -0.03980107955846       -1.71260683970369
H           -5.14410655596947        0.60457880260829       -2.68135358537055
H           -6.26498982727145        2.67610218972874       -2.00420556984400
H           -5.23014964657095        4.18540813819028       -0.34093163664914
H           -3.58364284423252        5.36957257334815        1.51677230110978
H           -1.75521051130762        5.91920933430833        3.08869112020321
H            0.14019264823826        4.39686944299699        3.38347954971086
H            0.29290629249648        2.29357986012495        2.11062625513468
H            0.89275229441290        1.71522593416855       -0.19165228159498
H            1.66675909884261        1.24605355149913       -2.42890030886872
H            3.10233122027329        2.43585305680922       -4.03741875983034
H            5.53986072313397        2.43067585127830       -3.80256715222536
H            6.62731873570107        1.20622164208477       -1.94933340543947
H            7.17645987714824       -0.30717421749212        0.27699476834154
H            7.04391135830764       -1.71858857773265        2.30363598051882
H            4.87449301877615       -2.40975799331043        3.20679007043936
H            2.77108153328451       -1.74360081050880        2.11684409898371
H            1.61810181245836       -2.49402778029355        0.15162427130774
