62
 energy: -101.972842696450 gnorm: 0.000166025151 xtb: 6.7.1 (edcfbbe)
O           -0.15017114535154       -4.23844247028303        1.00114018409156
C           -0.84986893866966       -3.36570355641001        0.53552559627026
C           -2.24320515496439       -3.63384548085078        0.09629713884895
C           -2.76670578710566       -3.14875230584296       -1.10324180007380
N           -4.00972796775536       -3.38985013180850       -1.47538414161104
C           -4.73947719523222       -4.14559230828029       -0.67424873063467
N           -4.33813142445438       -4.69941911589236        0.45585283069552
C           -3.10248810384196       -4.44394673504340        0.84169370180775
C           -0.38011045016745       -1.97032366313942        0.35150797115470
C           -1.26421139331864       -0.89682165308135        0.39738345492443
C           -0.78648109805197        0.40019384304241        0.23084806460362
N           -1.66452539846508        1.48325217001037        0.29133829190073
C           -2.88820968022753        1.57288739426201       -0.35158687274497
C           -3.49508374550984        0.68959808354848       -1.23188405414263
C           -4.72413893846756        1.04089780299334       -1.75764568864828
C           -5.33588724924746        2.24829279697764       -1.43099833099987
C           -4.72341647249417        3.14533054124176       -0.57861452716855
C           -3.48989985802358        2.81148795184576       -0.03575963439345
C           -2.58596005002142        3.49393151543888        0.84836518240441
C           -2.63737807877995        4.71834034907005        1.50093746964999
C           -1.58828278552934        5.07270160352106        2.32533448195288
C           -0.50825617471898        4.21482148872982        2.51632503248533
C           -0.43532753949509        2.99128912254631        1.87717901822873
C           -1.47222026056944        2.64287183487722        1.02440599506640
C            0.57212209824509        0.61519360491103        0.01578973820408
C            1.45994384307785       -0.45731934433793       -0.01318562286763
N            2.82127993016019       -0.23190650604617       -0.21611927755766
C            3.37581197758800        0.57685387423808       -1.19341893631259
C            2.75811853315236        1.28376121314736       -2.21445605984721
C            3.56196034602146        1.99423044321514       -3.08624022863944
C            4.94844787795278        1.99834484746189       -2.95805393458207
C            5.57036230008101        1.27395089454143       -1.96068928243806
C            4.78336928911054        0.55259158321254       -1.07315402861091
C            5.08639077906908       -0.30885669896958        0.03636719119056
C            6.27357576571730       -0.70067189609562        0.64060091299000
C            6.21230562975904       -1.54289831059769        1.73273793886438
C            4.98765843634757       -1.97969811153144        2.23164029287551
C            3.79309875779702       -1.60255118598895        1.64731374882959
C            3.85041194121456       -0.77785412805834        0.53372851022038
C            0.97994687144362       -1.75170942645300        0.15965826367062
H           -2.16169091465486       -2.57054562972903       -1.79114720094545
H           -5.76007086076316       -4.33663332435059       -0.97835910135152
H           -2.77937925846006       -4.88281141456383        1.77668116257981
H           -2.31110778501991       -1.05373360299871        0.60724835727107
H           -3.02730250852755       -0.24103286129917       -1.51287728467362
H           -5.21598905626304        0.36242729493997       -2.43832545074737
H           -6.29751368405897        2.48626802911111       -1.86022114115147
H           -5.18774743971217        4.08964430112610       -0.33827767474863
H           -3.48516153218222        5.37287833260943        1.36717453767037
H           -1.60626679955166        6.02144483657625        2.84028484684543
H            0.28951793486821        4.50887607850146        3.18201757492351
H            0.39727328458429        2.32756861594924        2.05498307353289
H            0.94032861611705        1.62014409620172       -0.12016181094301
H            1.68592238347358        1.27209732246771       -2.34079650507918
H            3.10315760542014        2.55500702317772       -3.88700701775287
H            5.54145377140770        2.56828819141400       -3.65746261610899
H            6.64598587623365        1.26042979083967       -1.87192779946155
H            7.22110261894563       -0.34753238282877        0.26295879932907
H            7.12338022898816       -1.86271269939345        2.21586043299752
H            4.96919171613864       -2.62591829238969        3.09645028845078
H            2.85127623998823       -1.93577649982916        2.05561360269127
H            1.64743100759689       -2.59823443979123        0.11841890577259
