62
 energy: -101.972842339701 gnorm: 0.000034258189 xtb: 6.7.1 (edcfbbe)
O            0.16754894545233       -4.45673630645559        1.02399431509724
C           -0.61292237435741       -3.64721105724476        0.57291642842262
C           -1.98557460793742       -4.03366994439413        0.15739944029569
C           -2.57190969311896       -3.58857581479050       -1.02852458277414
N           -3.79550110375527       -3.93595961604529       -1.38052117248525
C           -4.44077803766908       -4.75871975554593       -0.57289832740585
N           -3.97156018584516       -5.28210637699521        0.54553373841550
C           -2.75639380911353       -4.92100653001001        0.91154786458046
C           -0.26865903455002       -2.21645892613409        0.38268744279654
C           -1.23961000056664       -1.22266112797034        0.45748651981348
C           -0.87940562222636        0.11077000359761        0.28308682277300
N           -1.84524401843641        1.11420772549890        0.37243305295574
C           -3.09045673586493        1.09810514340403       -0.23422199450691
C           -3.64422919099327        0.16664672989147       -1.09974008942511
C           -4.91449040995650        0.41009539302156       -1.58716174131264
C           -5.61918401270141        1.55891339021100       -1.23732097526372
C           -5.06181547753947        2.50472578735773       -0.39997267695555
C           -3.78808046125750        2.27902626827527        0.10438846635314
C           -2.92149194004091        3.03586529917509        0.96504216048713
C           -3.06031320659093        4.24957031286411        1.62480568370214
C           -2.02287427119892        4.69163127741669        2.42117140918264
C           -0.86750936342804        3.93034093848218        2.57746024540815
C           -0.70678370534965        2.71951442565262        1.93016045201356
C           -1.73336663120821        2.28449593678695        1.10517517411221
C            0.44922066697277        0.44164843929260        0.03071485950181
C            1.42413489720137       -0.55104717493393       -0.02768355911480
N            2.75493228787317       -0.21076974582893       -0.26937275348341
C            3.21058613268665        0.63978822434313       -1.26217337505229
C            2.50550955965570        1.29364054517624       -2.26168525938637
C            3.22104241885870        2.06630672061758       -3.15724474929622
C            4.60600062200777        2.18275374191078       -3.07326405398436
C            5.31595303803245        1.51198408348162       -2.09738733850475
C            4.61859669992233        0.73000967099279       -1.18657589015381
C            5.02569365441327       -0.10318546030807       -0.08884286265270
C            6.25929792529330       -0.39696059955659        0.47675277145226
C            6.30123757563485       -1.24066004683811        1.56870080901990
C            5.13253321979729       -1.77515508889641        2.10524204904852
C            3.89338159487889       -1.49675415548862        1.55961916171170
C            3.84828472308990       -0.67084379300958        0.44638027055375
C            1.06167448894215       -1.88203899371508        0.15386049617837
H           -2.03302639934580       -2.95460826448332       -1.72229759999078
H           -5.44591415175311       -5.03723615248272       -0.86050660680305
H           -2.37871764120142       -5.33575031867352        1.83705291731943
H           -2.26293135687324       -1.46905440866601        0.69570844078068
H           -3.10596218428680       -0.71931158504920       -1.39851821014858
H           -5.36553746478767       -0.30784235642579       -2.25550542760297
H           -6.61047134073102        1.71245583472631       -1.63647155926325
H           -5.59921028285346        3.40456142752939       -0.14193784818034
H           -3.96518816224724        4.82826908900066        1.51846212928995
H           -2.10863777995990        5.63386779295620        2.94120029178900
H           -0.07981330922864        4.29070354249551        3.22223031619017
H            0.18503638192772        2.13023410904172        2.08101861416726
H            0.72615616784244        1.47460762345332       -0.11175429622468
H            1.43430502996248        1.19518650996332       -2.35397937863216
H            2.69298941894494        2.58752799504624       -3.94189989442784
H            5.12835886284722        2.79824111787844       -3.79019783198456
H            6.39142879745322        1.58559835980147       -2.04294813622530
H            7.16263669033779        0.03165099983188        0.07003751071553
H            7.25015633356497       -1.48511091845570        2.02205490979640
H            5.19393044254055       -2.42015713653457        2.96897612782924
H            2.99510077531561       -1.90523243803369        1.99667999514595
H            1.79783761552824       -2.66811736621045        0.09062630433622
