  50
        -69.53979170
 C         -3.3892422692        2.0925560366       -1.2492575010
 C         -2.8791273703        1.3733003464        0.0125625002
 C         -3.3859429524        2.0962873055        1.2735553283
 C         -3.4324142860       -0.0378613402        0.0146627666
 C         -4.7993992339       -0.2701619737        0.0213440040
 C         -5.3191728693       -1.5532261115        0.0251161626
 C         -4.4627022714       -2.6409377333        0.0233685194
 C         -3.0991137579       -2.4357621647        0.0163917961
 C         -2.5766097794       -1.1409527409        0.0105800985
 N         -1.2159736155       -0.9769933335       -0.0043971138
 C         -0.5752222671        0.2413950814       -0.0004358842
 C         -1.3580032169        1.4040735899        0.0101031494
 C         -0.7137383370        2.6310794668        0.0132820110
 C          0.6594795258        2.7181254273        0.0045356838
 C          1.4327870074        1.5598410159       -0.0129227739
 C          0.8319991889        0.3010549943       -0.0121520323
 C          1.6842374071       -0.9644086400       -0.0594649953
 C          1.3315115828       -1.9013003614        1.1277568859
 C          1.4671178566       -1.6509793624       -1.4273358189
 C          3.1749869458       -0.6660628450        0.0124148564
 C          4.0866804288       -1.7117461746        0.0492288299
 C          5.4513317844       -1.4855469760        0.0855104230
 C          5.9325434701       -0.1868935973        0.0860320356
 C          5.0471839511        0.8693988066        0.0503983431
 C          3.6717076937        0.6378856969        0.0097645320
 N          2.8024596158        1.6956960565       -0.0339391780
 H         -4.4752450148        2.1078018943       -1.2715865181
 H         -3.0339121687        1.5748550423       -2.1379602605
 H         -3.0316983308        3.1173726303       -1.2831290537
 H         -4.4717319747        2.0984613023        1.3062492153
 H         -3.0416527188        3.1260119072        1.2960681611
 H         -3.0161557535        1.5905444514        2.1634104087
 H         -5.4838088011        0.5645370909        0.0233268646
 H         -6.3881164909       -1.7021826340        0.0294851130
 H         -4.8565275073       -3.6463780296        0.0271306615
 H         -2.4194292150       -3.2773193541        0.0150849329
 H         -0.6607694096       -1.8126616888        0.0283702561
 H         -1.2876615831        3.5439590486        0.0221371089
 H          1.1481540675        3.6815127461        0.0076469586
 H          0.5699144981       -1.4591540588        1.7651131160
 H          2.2095516334       -2.0603936766        1.7494384480
 H          0.9921403246       -2.8791232415        0.7889322209
 H          1.8945181574       -1.0244161989       -2.2082065295
 H          1.9694706405       -2.6146608144       -1.4561788472
 H          0.4167419170       -1.7957142481       -1.6619642121
 H          3.7278523832       -2.7301229538        0.0512751888
 H          6.1354223233       -2.3198677084        0.1122740465
 H          6.9952605478        0.0012020592        0.1150148212
 H          5.4071776243        1.8887499792        0.0519568036
 H          3.1813238221        2.6292755198       -0.0144875432
  50
        -69.53951558
 C         -3.4625615222        2.2018657445       -1.0797388035
 C         -2.8774277714        1.3701184113        0.0753725881
 C         -3.3007009440        1.9746991322        1.4271099697
 C         -3.4326796415       -0.0379302835       -0.0088222438
 C         -4.7996526626       -0.2705638763       -0.0066696273
 C         -5.3198320347       -1.5509002730       -0.0868801510
 C         -4.4638241535       -2.6355358952       -0.1730879933
 C         -3.1001717986       -2.4309218577       -0.1644356982
 C         -2.5772139951       -1.1394053484       -0.0748082603
 N         -1.2164287030       -0.9777311419       -0.0378627549
 C         -0.5756323412        0.2408580163       -0.0256725627
 C         -1.3585725633        1.4034022467       -0.0060896552
 C         -0.7148583826        2.6304568376       -0.0264332611
 C          0.6579117141        2.7169914608       -0.0675187875
 C          1.4317028091        1.5589739353       -0.0555723535
 C          0.8315584812        0.3000803107       -0.0275545335
 C          1.6834566429       -0.9644144750        0.0499643559
 C          1.4263344056       -1.6364334189        1.4178343772
 C          1.3633039968       -1.9158391130       -1.1351780893
 C          3.1754611637       -0.6652465848        0.0117226185
 C          4.0890583476       -1.7092588262        0.0520328085
 C          5.4540099204       -1.4823938635        0.0398694273
 C          5.9341343279       -0.1846950850       -0.0194745392
 C          5.0471724041        0.8699291588       -0.0622287982
 C          3.6712640647        0.6380378364       -0.0410001632
 N          2.8011595109        1.6953496172       -0.0702724422
 H         -4.5473158126        2.1517338581       -1.0808711194
 H         -3.0999537166        1.8197508708       -2.0319712562
 H         -3.1742247841        3.2452722719       -0.9948503951
 H         -2.9168770143        2.9855464206        1.5340666454
 H         -2.9065085505        1.3697796200        2.2415207147
 H         -4.3835427666        2.0040008026        1.5131083551
 H         -5.4841177399        0.5613746034        0.0614236403
 H         -6.3887561030       -1.7001557291       -0.0833226867
 H         -4.8581010607       -3.6383903218       -0.2427381814
 H         -2.4209023235       -3.2706660831       -0.2245922024
 H         -0.6619863294       -1.8091217077       -0.1335617733
 H         -1.2880826520        3.5434504453       -0.0096690152
 H          1.1462347805        3.6802120792       -0.0940718161
 H          0.3689247652       -1.7768853418        1.6200204407
 H          1.8309644721       -1.0023968430        2.2047448723
 H          1.9244217808       -2.6009183045        1.4725062000
 H          0.6509854275       -1.4625764196       -1.8206366626
 H          2.2673246934       -2.1173563360       -1.7053203767
 H          0.9760267099       -2.8755614082       -0.7955218304
 H          3.7317535713       -2.7274436885        0.0913554383
 H          6.1392216925       -2.3155199358        0.0755689168
 H          6.9970719138        0.0039223805       -0.0328659936
 H          5.4062912952        1.8884798238       -0.1099422982
 H          3.1801249481        2.6284556563       -0.1035131714
  50
        -69.53848179
 C         -3.6629598264        2.5123178508       -0.2754296236
 C         -2.8718287053        1.3490679100        0.3225667804
 C         -3.0116515268        1.4065050219        1.8592711507
 C         -3.4058189902        0.0030222618       -0.1233107875
 C         -4.6851567259       -0.2182057594       -0.6032475704
 C         -5.1408727375       -1.5007744793       -0.8667864399
 C         -4.3162101241       -2.5891589424       -0.6454036448
 C         -3.0259503149       -2.3898474713       -0.1958379672
 C         -2.5643501984       -1.1005669396        0.0544392679
 N         -1.2650439372       -0.9044074442        0.4780971241
 C         -0.6009281195        0.2761962417        0.1828675369
 C         -1.3881516090        1.4250408713        0.0016825454
 C         -0.7631968014        2.6033626446       -0.3654612951
 C          0.6062327100        2.6598627093       -0.5099994655
 C          1.3874349915        1.5321127473       -0.2742538112
 C          0.7976022399        0.3118641162        0.0614731014
 C          1.6562439205       -0.9236310575        0.3155577412
 C          1.5271539173       -1.3064215658        1.8067582468
 C          1.2276476665       -2.0848378901       -0.6229725958
 C          3.1370718294       -0.6614337722        0.0830755107
 C          4.0508329821       -1.6966396086        0.2228955789
 C          5.4084528363       -1.4973658598        0.0446915794
 C          5.8802821481       -0.2372516451       -0.2832734916
 C          4.9926003312        0.8073206544       -0.4302234722
 C          3.6242733747        0.6040794245       -0.2462053696
 N          2.7539377892        1.6521393246       -0.3906470579
 H         -4.7106297685        2.4333295708        0.0009194866
 H         -3.5814552774        2.5198005413       -1.3598956288
 H         -3.3013310250        3.4587837130        0.1162746370
 H         -2.4649322655        0.5889310302        2.3209113905
 H         -4.0589147731        1.3277693493        2.1434711397
 H         -2.6119318030        2.3460395282        2.2346626339
 H         -5.3550355862        0.6091782935       -0.7715943969
 H         -6.1456602284       -1.6474460726       -1.2331749882
 H         -4.6721350929       -3.5911813160       -0.8333296026
 H         -2.3647810496       -3.2312332706       -0.0382009294
 H         -0.7058610318       -1.7391124678        0.5253799468
 H         -1.3335632756        3.5004595711       -0.5358752969
 H          1.0868641137        3.5861335060       -0.7896341457
 H          2.0443596851       -2.2408398146        2.0091776508
 H          0.4925789386       -1.4022616299        2.1222903005
 H          1.9868169677       -0.5276524088        2.4127856147
 H          2.0694890796       -2.3972044685       -1.2366172854
 H          0.8929377323       -2.9577860491       -0.0642328563
 H          0.4407696196       -1.7708979229       -1.3050349651
 H          3.6989122486       -2.6857781897        0.4755393125
 H          6.0943886344       -2.3222193240        0.1626904761
 H          6.9374924122       -0.0702310947       -0.4246989896
 H          5.3452801836        1.7960354819       -0.6886225910
 H          3.1253680081        2.5512144140       -0.6537737697
  50
        -69.53828722
 C         -3.6576855350        2.5149905008       -0.2721268177
 C         -2.8634099028        1.3594422029        0.3370739335
 C         -2.9862491345        1.4432806681        1.8740673521
 C         -3.4083108377        0.0081334977       -0.0800974884
 C         -4.6982461647       -0.2168515208       -0.5289542629
 C         -5.1633424534       -1.5018033485       -0.7633167957
 C         -4.3377542593       -2.5895179378       -0.5424198020
 C         -3.0381440710       -2.3876495573       -0.1219850170
 C         -2.5671353618       -1.0959899783        0.0979751221
 N         -1.2598212006       -0.8977009269        0.4893603058
 C         -0.5969468045        0.2769311421        0.1731929184
 C         -1.3829850533        1.4274661201       -0.0018672393
 C         -0.7591871179        2.6009878850       -0.3864032846
 C          0.6073611432        2.6508282253       -0.5580510370
 C          1.3869941794        1.5184148232       -0.3406006142
 C          0.7987998623        0.3050178319        0.0214811118
 C          1.6510566634       -0.9478164662        0.1993582223
 C          1.3736448127       -1.6000390466        1.5801382969
 C          1.3529096252       -1.9130057752       -0.9711147999
 C          3.1413776522       -0.6537753660        0.1100025732
 C          4.0606606881       -1.6656128346        0.3481849341
 C          5.4233933717       -1.4489249546        0.2440375638
 C          5.8943606560       -0.1947569313       -0.1069212863
 C          5.0010797100        0.8268848189       -0.3509590091
 C          3.6273533602        0.6041486269       -0.2493133630
 N          2.7496829953        1.6243891854       -0.5069147886
 H         -4.7030009264        2.4434586126        0.0144287258
 H         -3.5854290929        2.5046678491       -1.3572568388
 H         -3.2909000815        3.4669337483        0.1009973973
 H         -2.5725383425        2.3843000090        2.2303398245
 H         -2.4441416236        0.6267559024        2.3432760416
 H         -4.0310678229        1.3804488442        2.1707053865
 H         -5.3699604770        0.6096593813       -0.6944735010
 H         -6.1761136878       -1.6501683602       -1.1059684133
 H         -4.7008233761       -3.5929650258       -0.7077018927
 H         -2.3769064159       -3.2289903983        0.0376259955
 H         -0.7036363172       -1.7305330052        0.5777571856
 H         -1.3285793622        3.4998387845       -0.5505029731
 H          1.0861301178        3.5739707024       -0.8509511736
 H          0.6297403796       -1.0374295486        2.1381774526
 H          2.2814150618       -1.6065772055        2.1793365183
 H          1.0394586561       -2.6320076038        1.4818255698
 H          0.2923352413       -2.1128601298       -1.0940276120
 H          1.7109069615       -1.4670776199       -1.8974137440
 H          1.8726813243       -2.8571636742       -0.8283289073
 H          3.7092321415       -2.6492507597        0.6219754511
 H          6.1138231829       -2.2562855237        0.4346084445
 H          6.9554953157       -0.0139239556       -0.1900905647
 H          5.3536776491        1.8112479030       -0.6256116778
 H          3.1237465531        2.5292635341       -0.7455692473
  50
        -69.53824821
 C         -3.1040268231        1.6078644695       -1.7177880575
 C         -2.8787807117        1.3672853191       -0.2097947259
 C         -3.6240069801        2.4497802775        0.5772921505
 C         -3.4187300287       -0.0147903326        0.1075436492
 C         -4.7367372626       -0.2641301165        0.4544371734
 C         -5.2104607544       -1.5556363929        0.6220645462
 C         -4.3634114012       -2.6333072480        0.4359862193
 C         -3.0429747067       -2.4109998551        0.1027578345
 C         -2.5664764742       -1.1111702138       -0.0583341402
 N         -1.2447089464       -0.9164896059       -0.3894143239
 C         -0.5913814670        0.2741041695       -0.1320040740
 C         -1.3772015144        1.4253291073        0.0352300765
 C         -0.7357538798        2.6210589290        0.3113177231
 C          0.6366848199        2.6873085800        0.4068948692
 C          1.4114258025        1.5468998505        0.2162370753
 C          0.8115050177        0.3144173288       -0.0453709838
 C          1.6641352602       -0.9329281154       -0.2614903649
 C          1.2445917181       -2.0527666382        0.7297883059
 C          1.5204838389       -1.3753462466       -1.7353959384
 C          3.1487029663       -0.6661794744       -0.0574585081
 C          4.0567994389       -1.7112935112       -0.1532331257
 C          5.4173464115       -1.5085450731       -0.0032488266
 C          5.8982574151       -0.2345160112        0.2488298746
 C          5.0164897074        0.8205784529        0.3495019197
 C          3.6452347127        0.6132358255        0.1954588830
 N          2.7800778905        1.6704177515        0.2957162438
 H         -4.1655482221        1.5653440822       -1.9520224212
 H         -2.5899793886        0.8473783779       -2.3006923806
 H         -2.7159220518        2.5832340498       -2.0030102275
 H         -3.2918680612        3.4402398103        0.2826372530
 H         -3.4630600972        2.3242699285        1.6456411652
 H         -4.6891750616        2.4040819092        0.3733840119
 H         -5.4284414797        0.5511409215        0.5909428300
 H         -6.2442804710       -1.7164601395        0.8869943503
 H         -4.7275492712       -3.6428665577        0.5547160323
 H         -2.3659300256       -3.2430515453       -0.0361527642
 H         -0.6841465890       -1.7501967884       -0.4255258547
 H         -1.2975907717        3.5291568765        0.4478567804
 H          1.1238329710        3.6285442389        0.6164592296
 H          2.0910145783       -2.3352179385        1.3517467936
 H          0.9094589209       -2.9501799680        0.2114524620
 H          0.4604922055       -1.7121494751        1.4021641913
 H          1.9905124677       -0.6308667246       -2.3757810125
 H          2.0212151401       -2.3261855143       -1.9002132616
 H          0.4831087950       -1.4665515515       -2.0434319404
 H          3.6985133038       -2.7103930508       -0.3514414443
 H          6.0983373062       -2.3414160162       -0.0860841380
 H          6.9576919369       -0.0645737122        0.3676079663
 H          5.3761724019        1.8202787420        0.5491907722
 H          3.1576844339        2.5821586998        0.5001320237
  50
        -69.53805988
 C         -3.6115794535        2.4433696611       -0.5806184437
 C         -2.8743005446        1.3707842240        0.2287978459
 C         -3.1023768020        1.6357078049        1.7319494166
 C         -3.4235708007       -0.0127191629       -0.0684657518
 C         -4.7556885277       -0.2580108941       -0.3609871230
 C         -5.2397819792       -1.5470268811       -0.5164569879
 C         -4.3886899820       -2.6278920984       -0.3710468266
 C         -3.0563937485       -2.4105476237       -0.0865085761
 C         -2.5698701660       -1.1125296425        0.0629581661
 N         -1.2381573270       -0.9258490971        0.3473013935
 C         -0.5872159797        0.2687404940        0.1118490821
 C         -1.3723846465        1.4250299907       -0.0177211676
 C         -0.7297908257        2.6257983759       -0.2693800961
 C          0.6410150087        2.6907376259       -0.3866015392
 C          1.4144453367        1.5421194095       -0.2457752250
 C          0.8146415112        0.3077538620        0.0057566182
 C          1.6627446978       -0.9555838348        0.1234871274
 C          1.3613037226       -1.6887753531        1.4578141766
 C          1.3881055117       -1.8478039943       -1.1093265305
 C          3.1551695457       -0.6604317579        0.0818573229
 C          4.0672622630       -1.6902705980        0.2636310977
 C          5.4323233782       -1.4716513454        0.2017548726
 C          5.9131086845       -0.1972375865       -0.0483226891
 C          5.0271460365        0.8429232252       -0.2333073819
 C          3.6512675951        0.6186493596       -0.1732943258
 N          2.7807265544        1.6587479321       -0.3674722125
 H         -4.6791399760        2.4004658654       -0.3904329520
 H         -3.4375042089        2.3030963264       -1.6449191249
 H         -3.2831403674        3.4379851920       -0.2964667911
 H         -2.6015792348        0.8759442286        2.3275824327
 H         -4.1651669750        1.6103754270        1.9621627837
 H         -2.7025248669        2.6093234668        2.0063457636
 H         -5.4509641113        0.5595106595       -0.4614292435
 H         -6.2840004092       -1.7038407481       -0.7401475323
 H         -4.7598390112       -3.6357972205       -0.4817368682
 H         -2.3773296907       -3.2452650690        0.0257710806
 H         -0.6807668833       -1.7596979244        0.4084518930
 H         -1.2900768639        3.5397767783       -0.3685943883
 H          1.1276169674        3.6357950681       -0.5794249566
 H          2.2579522168       -1.7286403040        2.0714727038
 H          1.0324650907       -2.7133857420        1.2928993084
 H          0.6063454261       -1.1618255178        2.0346543068
 H          1.8929307967       -2.8054470706       -1.0076923874
 H          0.3293684501       -2.0259524640       -1.2749137616
 H          1.7787592662       -1.3529568991       -1.9969007436
 H          3.7086541055       -2.6897042000        0.4594408390
 H          6.1164478398       -2.2938355466        0.3468239249
 H          6.9759121607       -0.0156969868       -0.0984811678
 H          5.3871054856        1.8434795560       -0.4280809771
 H          3.1604585248        2.5786063970       -0.5272060140
