  50
        -69.53979170
 C         -3.3892422692        2.0925560366       -1.2492575010
 C         -2.8791273703        1.3733003464        0.0125625002
 C         -3.3859429524        2.0962873055        1.2735553283
 C         -3.4324142860       -0.0378613402        0.0146627666
 C         -4.7993992339       -0.2701619737        0.0213440040
 C         -5.3191728693       -1.5532261115        0.0251161626
 C         -4.4627022714       -2.6409377333        0.0233685194
 C         -3.0991137579       -2.4357621647        0.0163917961
 C         -2.5766097794       -1.1409527409        0.0105800985
 N         -1.2159736155       -0.9769933335       -0.0043971138
 C         -0.5752222671        0.2413950814       -0.0004358842
 C         -1.3580032169        1.4040735899        0.0101031494
 C         -0.7137383370        2.6310794668        0.0132820110
 C          0.6594795258        2.7181254273        0.0045356838
 C          1.4327870074        1.5598410159       -0.0129227739
 C          0.8319991889        0.3010549943       -0.0121520323
 C          1.6842374071       -0.9644086400       -0.0594649953
 C          1.3315115828       -1.9013003614        1.1277568859
 C          1.4671178566       -1.6509793624       -1.4273358189
 C          3.1749869458       -0.6660628450        0.0124148564
 C          4.0866804288       -1.7117461746        0.0492288299
 C          5.4513317844       -1.4855469760        0.0855104230
 C          5.9325434701       -0.1868935973        0.0860320356
 C          5.0471839511        0.8693988066        0.0503983431
 C          3.6717076937        0.6378856969        0.0097645320
 N          2.8024596158        1.6956960565       -0.0339391780
 H         -4.4752450148        2.1078018943       -1.2715865181
 H         -3.0339121687        1.5748550423       -2.1379602605
 H         -3.0316983308        3.1173726303       -1.2831290537
 H         -4.4717319747        2.0984613023        1.3062492153
 H         -3.0416527188        3.1260119072        1.2960681611
 H         -3.0161557535        1.5905444514        2.1634104087
 H         -5.4838088011        0.5645370909        0.0233268646
 H         -6.3881164909       -1.7021826340        0.0294851130
 H         -4.8565275073       -3.6463780296        0.0271306615
 H         -2.4194292150       -3.2773193541        0.0150849329
 H         -0.6607694096       -1.8126616888        0.0283702561
 H         -1.2876615831        3.5439590486        0.0221371089
 H          1.1481540675        3.6815127461        0.0076469586
 H          0.5699144981       -1.4591540588        1.7651131160
 H          2.2095516334       -2.0603936766        1.7494384480
 H          0.9921403246       -2.8791232415        0.7889322209
 H          1.8945181574       -1.0244161989       -2.2082065295
 H          1.9694706405       -2.6146608144       -1.4561788472
 H          0.4167419170       -1.7957142481       -1.6619642121
 H          3.7278523832       -2.7301229538        0.0512751888
 H          6.1354223233       -2.3198677084        0.1122740465
 H          6.9952605478        0.0012020592        0.1150148212
 H          5.4071776243        1.8887499792        0.0519568036
 H          3.1813238221        2.6292755198       -0.0144875432
