  67
       -101.82947491
 C         -6.9417798083        2.5126620557        0.9589402184
 C         -7.0725430726        1.5040220630       -0.1862993745
 C         -6.9725857651        2.2149879707       -1.5392529785
 C         -8.3566735200        0.7134569560       -0.0767636727
 C         -9.6575685847        1.1671528404       -0.1115028241
 C        -10.6911864817        0.2480895881        0.0124734877
 C        -10.4250315445       -1.1037397598        0.1680221147
 C         -9.1208221279       -1.5689987178        0.2032569008
 C         -8.0869580169       -0.6545828293        0.0803123991
 C         -6.6467831940       -0.8428598914        0.0851436931
 C         -5.8797345008       -1.9917537621        0.2131458916
 C         -4.5033280014       -1.8785965335        0.1910080119
 C         -3.8886070018       -0.6329883518        0.0433133680
 C         -2.4335539765       -0.5327992672        0.0331408821
 N         -1.8915979862        0.6803822980       -0.0998501735
 C         -0.5804897596        0.7706152659       -0.0950941429
 C          0.2592863540       -0.3403052922        0.0293380066
 C          1.7160523031       -0.2361118008        0.0288355041
 C          2.3632619425        0.6810921779       -0.7990966810
 C          3.7392227569        0.7735675191       -0.8102371185
 C          4.5039451869       -0.0416405234        0.0216108642
 N          5.8993083336        0.0528896800        0.0129298465
 C          6.7799979666       -1.0046901411       -0.1089283655
 C          6.5207799408       -2.3557794343       -0.2884154772
 C          7.6005447536       -3.2089924900       -0.4143428354
 C          8.9102546182       -2.7364679107       -0.3730259775
 C          9.1741231229       -1.3900600676       -0.2195417618
 C          8.1053473289       -0.5131183990       -0.0906599701
 C          8.0104311285        0.9124143647        0.0567187113
 C          8.9538647945        1.9263946107        0.1560483876
 C          8.5144820676        3.2250072777        0.3184386532
 C          7.1544616669        3.5158401492        0.3980531891
 C          6.1971305338        2.5239968910        0.3017002078
 C          6.6318225018        1.2200038391        0.1125651469
 C          3.8643667482       -0.9528767303        0.8588841213
 C          2.4884499109       -1.0522880026        0.8547611637
 C         -0.4138557997       -1.5597052272        0.1523165174
 N         -1.7244734257       -1.6562907371        0.1608889523
 C         -4.6648898243        0.5234289928       -0.0895304551
 C         -6.0335571681        0.4114714853       -0.0681551075
 H         -7.7321140020        3.2572192570        0.8994371895
 H         -7.0147747991        2.0036482955        1.9176257548
 H         -5.9804895705        3.0177520501        0.9060891109
 H         -7.7612986625        2.9574920166       -1.6352448385
 H         -7.0712420880        1.4961012479       -2.3498407677
 H         -6.0104348951        2.7127084744       -1.6314115757
 H         -9.8773851778        2.2180667082       -0.2319175694
 H        -11.7153784322        0.5904976294       -0.0117764226
 H        -11.2450184193       -1.8004756032        0.2634247571
 H         -8.9150517889       -2.6220434603        0.3248877011
 H         -6.3487540981       -2.9574567950        0.3292511441
 H         -3.8750534227       -2.7499054929        0.2886832395
 H         -0.1769793159        1.7733077944       -0.1753037296
 H          1.7821328846        1.3043042429       -1.4625633697
 H          4.2333128570        1.4643355713       -1.4767952815
 H          5.5100024691       -2.7309823115       -0.3419420505
 H          7.4241640322       -4.2656377368       -0.5513202423
 H          9.7269541810       -3.4357033034       -0.4723382778
 H         10.1884034486       -1.0208920519       -0.2047365632
 H         10.0078871584        1.6977772401        0.1112923145
 H          9.2311652042        4.0289274353        0.3952092112
 H          6.8408265001        4.5391838132        0.5421591357
 H          5.1466133288        2.7586526722        0.3842070211
 H          4.4521959561       -1.5682860200        1.5231277301
 H          2.0030203684       -1.7500410302        1.5209637010
 H          0.1277807740       -2.4951957667        0.2286541983
 H         -4.1676852863        1.4736786799       -0.2032818613
