67
 energy: -101.792974975038 gnorm: 0.000067396898 xtb: 6.7.1 (edcfbbe)
C           -6.95443885671124        2.63279085340842        0.65419649139100
C           -7.09386039405716        1.48365820321015       -0.35097603898497
C           -7.00782426546865        2.01739995211066       -1.78490713705887
C           -8.37737762902086        0.71565601282576       -0.12479003583602
C           -9.67647301669614        1.15879072645986       -0.20962963699305
C          -10.71254643735889        0.26595963369403        0.04963434464440
C          -10.44383794391132       -1.05440916854338        0.39005340495360
C           -9.14312113182221       -1.51311461470943        0.47883165635437
C           -8.10005601512754       -0.62497449512533        0.22101701588468
C           -6.67811049648359       -0.81252595805173        0.23925461269396
C           -5.89868359597470       -1.94020115322186        0.52549688811851
C           -4.53438725089416       -1.84000453177368        0.47743656424380
C           -3.89499749825806       -0.61904641633828        0.13905435876109
C           -2.48561422578845       -0.53277880119593        0.09972357327871
N           -1.87528913311554        0.63678842958811       -0.23564558263916
C           -0.58890535285642        0.72414602447114       -0.27140229404167
C            0.29203172451491       -0.35231530610807        0.04343454754331
C            1.71500496364211       -0.25642226574782        0.02438224731947
C            2.37940731797867        0.72873689885862       -0.74140391081089
C            3.74685747328606        0.82762153844861       -0.75076370796183
C            4.53104556804913       -0.05681996193272        0.00105403792000
N            5.92237481693331        0.04582517555230       -0.00687713696250
C            6.81058614391126       -0.99880309437416       -0.17866659164806
C            6.56006647820894       -2.34028228088528       -0.43738396861788
C            7.64588747491589       -3.18106468595308       -0.59929587784321
C            8.95235723445011       -2.70451870740712       -0.52039052803323
C            9.20842363853234       -1.36400670460889       -0.29382279548054
C            8.13475323332707       -0.50199344222631       -0.12678277083863
C            8.03004508432848        0.91609571403766        0.09322716843187
C            8.96546021586359        1.92782047613486        0.25199807049086
C            8.51522555580161        3.21533297993117        0.48324264456497
C            7.15326525863682        3.49260444912152        0.57493642196989
C            6.20280001892502        2.50006368273550        0.42155106916103
C            6.64737550509400        1.21081044293534        0.15794644524577
C            3.89227374996800       -1.04467219511862        0.76161713843768
C            2.52457988103359       -1.13998828634146        0.77422120938582
C           -0.42889974422624       -1.53486586604844        0.38375549163718
N           -1.71617517242160       -1.61420273024677        0.40019109540627
C           -4.69375418913254        0.51661249909198       -0.15490404043693
C           -6.05167887041182        0.41435727722670       -0.09947450501124
H           -7.74097935226636        3.36768988675827        0.49945758140888
H           -7.02732380317734        2.25395854529669        1.67182630552395
H           -5.99003245899868        3.12046900795849        0.53398451281551
H           -7.79987845808164        2.74004595927803       -1.96702229933983
H           -7.10982572021677        1.20164544394455       -2.49791955262498
H           -6.04785559830183        2.50164101704277       -1.94690906721674
H           -9.89957918937271        2.18279176096966       -0.47256879747042
H          -11.73706064842873        0.60292955145903       -0.01391207926432
H          -11.26475312173525       -1.72946681338117        0.58706897154081
H           -8.93690806985240       -2.53980062505254        0.74321634669476
H           -6.37207793455313       -2.87769038187746        0.77934219985235
H           -3.90678796796799       -2.69220903655558        0.69063030362146
H           -0.19296580406491        1.70510190599062       -0.50446293007623
H            1.80106496463134        1.39980246173007       -1.35780692017368
H            4.23126704463664        1.56799165589206       -1.37005268863674
H            5.55225674534235       -2.71605861982298       -0.52388423218948
H            7.47630163833418       -4.22919077919754       -0.79692762865555
H            9.77440291410734       -3.39274438183724       -0.64963190997204
H           10.22116380898714       -0.99268449195037       -0.25316228356780
H           10.02168482177469        1.71086684810560        0.20215646318176
H            9.22713497744875        4.01798937230677        0.60607837200079
H            6.83182949038384        4.50384797034891        0.77593458173197
H            5.15125150827515        2.72213011764852        0.51793037263417
H            4.48611442683665       -1.70928789594579        1.37143612518369
H            2.05688012603003       -1.88636345544052        1.39786728874064
H            0.09939014243038       -2.45708071470578        0.59310453405569
H           -4.19450165069430        1.43968300949734       -0.40711836706147
