67
 energy: -101.872453181949 gnorm: 0.000039766289 xtb: 6.7.1 (edcfbbe)
C           -6.73245878660311        2.14647377277584        1.17670610183548
C           -6.81726175977357        1.23553601517997       -0.05335042029074
C           -6.71699489532783        2.06438935873181       -1.33845226114790
C           -8.08064971821658        0.40401703930291       -0.03027318412224
C           -9.39410068206806        0.82298050874932       -0.05485134114863
C          -10.40310839477075       -0.13086152608134       -0.02098947825859
C          -10.10147295575977       -1.48352340850382        0.03615296692093
C           -8.78505093556080       -1.91434255410462        0.06120389253103
C           -7.77554348833535       -0.96478468354084        0.02785274028801
C           -6.33076605426475       -1.11438068176671        0.04248469958327
C           -5.53449284274198       -2.24976129929718        0.09616817729047
C           -4.16134303334600       -2.10033322937754        0.09817691135535
C           -3.57698944453347       -0.83183113952251        0.04531350236920
C           -2.12492230083332       -0.69686150182795        0.04441137770947
N           -1.60774686979210        0.53060061635723       -0.05943348782234
C           -0.29744591068760        0.64822684903871       -0.05690724309499
C            0.56724982844311       -0.44614370498393        0.04072463016894
C            2.02280989569607       -0.31375077657635        0.03710273677788
C            2.65074413969093        0.62567710003997       -0.78098787108521
C            4.02568720473695        0.74073283981860       -0.79701402338499
C            4.80746087206059       -0.07348323180268        0.01990333669146
N            6.20283775109816        0.04229425611630        0.00617157348234
C            7.09881431841835       -0.99872341276541       -0.14857683102959
C            6.85805594733710       -2.34824569711128       -0.36506062915701
C            7.94918837633197       -3.18282020936063       -0.51759579200910
C            9.25270851237446       -2.69299296740736       -0.46693310721656
C            9.49808146198554       -1.34758288544347       -0.27593865965458
C            8.41734801619100       -0.48880967974802       -0.11998554204878
C            8.30249760021485        0.93086035454434        0.06914764579338
C            9.23119322781111        1.95613324097457        0.19601693472155
C            8.77304194355971        3.24308000155411        0.39776882228685
C            7.40865191111336        3.51171456403851        0.48748081140717
C            6.46582718429060        2.50855691135552        0.36458546960875
C            6.91940946404286        1.21681238453639        0.13716102624090
C            4.18668812815006       -1.00590401626705        0.84857723529160
C            2.81236617060510       -1.12831157436713        0.84902760116040
C           -0.08057115490550       -1.68155710422120        0.13948359236368
N           -1.38964905602577       -1.80753372116583        0.14579531511704
C           -4.38360722056349        0.31097854184992       -0.00826705863638
C           -5.74980761096154        0.16420464545452       -0.00798189943130
H           -7.54324470041293        2.87084061143373        1.16528300401792
H           -6.80500059143475        1.55664886934359        2.08838432764736
H           -5.78548661879300        2.68054668149249        1.18300329294283
H           -7.52671539474551        2.78868007813759       -1.38334677994840
H           -6.77962819991973        1.41746006551648       -2.21131881204569
H           -5.76935687202460        2.59651862369578       -1.36795161227110
H           -9.64246142438907        1.87338574421291       -0.09890526813174
H          -11.43656933010839        0.18428617262037       -0.03949347074391
H          -10.90292691557986       -2.20798563555370        0.06135759640040
H           -8.55156648886748       -2.96786841102681        0.10542680750647
H           -5.97744533630005       -3.23373708548180        0.13549632159949
H           -3.51268227827195       -2.96168223137573        0.13900617464992
H            0.08191802747983        1.66174667653017       -0.11800779511891
H            2.05664854833709        1.24871440712334       -1.43303754092077
H            4.50389184132303        1.45015882595226       -1.45558541405338
H            5.85228109214228       -2.73598418907802       -0.42450691131424
H            7.78734050170417       -4.23795292597481       -0.68405890669212
H           10.07906726524149       -3.37794076879918       -0.58840356279764
H           10.50785056295374       -0.96570726974793       -0.25290215768511
H           10.28896159607849        1.74571442784595        0.14294879737384
H            9.47864808406569        4.05493841481919        0.49686584487354
H            7.08037704772218        4.52614720133996        0.66156919780505
H            5.41199023969163        2.72508925025902        0.45404765097928
H            4.78733198372335       -1.62197152300786        1.50071106884658
H            2.34144096654897       -1.84279193525737        1.50787643926729
H            0.47938992662241       -2.60776238949332        0.19773979458363
H           -3.91073437185190        1.27978231930505       -0.04701935822374
