  103
       -170.94743441
 N         -1.1578253608       -3.1350746394        2.5396202635
 C         -1.1107423089       -2.2405762471        1.8051225680
 C         -1.0546125344       -1.1655436957        0.9315705294
 C         -2.2552672224       -0.6009115568        0.3926896053
 N         -3.4774579138       -1.2321469345        0.6490488088
 C         -4.6017746352       -0.6132237063        1.1515573517
 C         -4.7185163490        0.6270694770        1.7609854327
 C         -5.9760472143        1.0238166713        2.1754215669
 C         -7.0844999350        0.1982498419        2.0128241402
 C         -6.9608957624       -1.0643198831        1.4579803636
 C         -5.7105369467       -1.4807833087        1.0308970555
 C         -5.2107489088       -2.6946105385        0.4418114570
 C         -5.8048543592       -3.8859620567        0.0586940711
 C         -5.0157095792       -4.8632372563       -0.5220109111
 C         -3.6540597180       -4.6577877581       -0.7297861708
 C         -3.0413555120       -3.4759344348       -0.3614156529
 C         -3.8249791765       -2.4984896425        0.2358375847
 C         -2.2220477739        0.5700100098       -0.3380481506
 N         -3.4004171959        1.0871943925       -0.8878220521
 C         -4.3082600068        0.3735558333       -1.6400726593
 C         -4.1608833275       -0.8657465500       -2.2448497206
 C         -5.2393718408       -1.3710894297       -2.9463811682
 C         -6.4244235059       -0.6516545117       -3.0670077237
 C         -6.5536998710        0.6113582120       -2.5144696954
 C         -5.4871145429        1.1355111819       -1.8025534105
 C         -5.2569809064        2.3840881664       -1.1255144081
 C         -6.0306852963        3.5137534417       -0.9150982531
 C         -5.4970117660        4.5535473794       -0.1740362736
 C         -4.2143114164        4.4699345939        0.3617927363
 C         -3.4271499521        3.3512403613        0.1699554623
 C         -3.9509533113        2.3124444870       -0.5867566299
 C         -0.9872815778        1.2508417669       -0.5797416841
 C         -0.9309898843        2.3237226972       -1.4552446573
 N         -0.8793946714        3.2146712742       -2.1942212592
 C          0.2124640599        0.6821574639       -0.0473946667
 N          1.4409140383        1.3010987164       -0.3139533295
 C          1.8279587781        2.5455156636        0.1323565875
 C          1.0634529343        3.5651068965        0.6813949918
 C          1.7169473303        4.7101146397        1.0919206125
 C          3.0997795343        4.8407308700        0.9725372081
 C          3.8703650844        3.8236348825        0.4409194105
 C          3.2340177925        2.6672162142        0.0172801868
 C          3.7012726981        1.4314542935       -0.5384179785
 C          4.9427760507        0.8924025127       -0.8332419224
 S          6.4966767839        1.6261480307       -0.5594849135
 C          7.3073015841        0.1930609536       -1.1699032648
 C          8.6755455293        0.0133333570       -1.2606743970
 C          9.1491011498       -1.1865831384       -1.7610697718
 C          8.2685110520       -2.1868523191       -2.1599373623
 C          6.9034569272       -2.0036259680       -2.0695538003
 C          6.4016551525       -0.8026785202       -1.5735938114
 C          5.0341301497       -0.4008815982       -1.3866606520
 C          3.8751136772       -1.1182401047       -1.6922911462
 C          2.6319161929       -0.6095884223       -1.3875744392
 C          2.5586811093        0.6317821467       -0.7595948498
 C          0.1784276543       -0.4836122120        0.6952216523
 N          1.3585791915       -0.9932452137        1.2538694400
 C          1.9450741548       -2.1946752720        0.9213492741
 C          1.4301537719       -3.2531377379        0.1860963641
 C          2.2574662610       -4.3320500130       -0.0575638255
 C          3.5706657709       -4.3588299514        0.4064685079
 C          4.0927686666       -3.3025964985        1.1316156602
 C          3.2784140671       -2.2134962138        1.3960808952
 C          3.4896434061       -0.9607119080        2.0694048077
 C          4.5723122519       -0.3895864713        2.7184777201
 C          4.4185889467        0.8650311260        3.2837371407
 C          3.1965652767        1.5286309943        3.2380946491
 C          2.1043243330        0.9794444607        2.5916713037
 C          2.2730197017       -0.2492603758        1.9719610893
 H         -3.8592354287        1.2593274983        1.9162681749
 H         -6.0983547241        1.9923339319        2.6364745406
 H         -8.0520030837        0.5438838399        2.3432830971
 H         -7.8184454568       -1.7123500699        1.3628192342
 H         -6.8619052328       -4.0448316296        0.2067000814
 H         -5.4591360582       -5.7998929215       -0.8236240649
 H         -3.0660007014       -5.4379722661       -1.1894267769
 H         -1.9875125329       -3.3247527513       -0.5284441224
 H         -3.2359105177       -1.4156898021       -2.1801350208
 H         -5.1580353243       -2.3421128768       -3.4111727542
 H         -7.2477476484       -1.0807471101       -3.6172054501
 H         -7.4638091954        1.1778107326       -2.6377650156
 H         -7.0297160532        3.5777715018       -1.3180042927
 H         -6.0824390679        5.4439657409       -0.0026613967
 H         -3.8283382106        5.2959155592        0.9401386808
 H         -2.4368498574        3.2937863090        0.5912074776
 H         -0.0058677168        3.4747201965        0.7750704157
 H          1.1449737684        5.5221752368        1.5148178304
 H          3.5726502442        5.7522058671        1.3047572815
 H          4.9420003564        3.9190757302        0.3579377129
 H          9.3512484547        0.7937280480       -0.9473040049
 H         10.2133875067       -1.3466177751       -1.8410874552
 H          8.6585363422       -3.1168280551       -2.5449438589
 H          6.2212519320       -2.7815528471       -2.3774345845
 H          3.9608394459       -2.0879697845       -2.1557612651
 H          1.7356166103       -1.1582977295       -1.6283830536
 H          0.4161070551       -3.2414605277       -0.1777063114
 H          1.8792491197       -5.1720178040       -0.6209536151
 H          4.1875967722       -5.2186754115        0.1935512701
 H          5.1144373711       -3.3212795108        1.4791351372
 H          5.5142619678       -0.9127525841        2.7819825083
 H          5.2532862140        1.3314559521        3.7839430121
 H          3.0985455346        2.4931478632        3.7129165927
 H          1.1538280186        1.4889923717        2.5766648579
