  103
  -170.332313331200       0.882332108087021      !
 N         -2.0578830113        3.7824744620        1.6655885651
 C         -1.7345866646        2.8015442760        1.1402768478
 C         -1.3486921486        1.6308004979        0.5072986587
 C         -2.2970386204        0.5901652565        0.2480732999
 N         -3.6260030903        0.7599784088        0.6645935375
 C         -4.7295423125        0.6162984517       -0.1456205868
 C         -4.7963939693        0.5718580549       -1.5306083894
 C         -6.0405628072        0.4046106144       -2.1085538125
 C         -7.1914182526        0.3090804944       -1.3314096424
 C         -7.1340590837        0.4092394112        0.0486390403
 C         -5.8970958171        0.5729529297        0.6503393267
 C         -5.4605336613        0.7193230820        2.0133091107
 C         -6.1198908912        0.7323052641        3.2316178652
 C         -5.3712192617        0.8644018352        4.3881616162
 C         -3.9840395200        0.9747539470        4.3377868806
 C         -3.3038478299        0.9587417273        3.1351990296
 C         -4.0516470679        0.8394610278        1.9721381879
 C         -1.9217774647       -0.5642374582       -0.4048161337
 N         -2.8661307013       -1.5737641771       -0.6449314520
 C         -3.6678726192       -2.1410467289        0.3197424975
 C         -3.5491180900       -2.0787639463        1.7004955353
 C         -4.5023833337       -2.7334194864        2.4572664302
 C         -5.5322966915       -3.4521853021        1.8572421554
 C         -5.6203245650       -3.5633282104        0.4796004706
 C         -4.6779789382       -2.9121116624       -0.2994354629
 C         -4.4480998755       -2.8124421344       -1.7161776425
 C         -5.0996067890       -3.3208455939       -2.8279618277
 C         -4.6148685914       -2.9990648555       -4.0838066186
 C         -3.5017221282       -2.1763500335       -4.2358898790
 C         -2.8389104469       -1.6526654073       -3.1424631383
 C         -3.3138770696       -1.9831149334       -1.8810428787
 C         -0.5671631228       -0.7655695171       -0.8207754136
 C         -0.1843534587       -1.9253938345       -1.4745237073
 N          0.1421655071       -2.8954038276       -2.0184865485
 C          0.3875255170        0.2591097980       -0.5275820132
 N          1.7300128635        0.0665048087       -0.8926846222
 C          2.4791052073        0.9581656210       -1.6278137855
 C          2.0553615228        2.0233625952       -2.4087016747
 C          3.0236296888        2.7805421740       -3.0396780401
 C          4.3773350288        2.4747790398       -2.9173239882
 C          4.8016947518        1.3811479861       -2.1840849718
 C          3.8464914901        0.6092199332       -1.5408358215
 C          3.9037973819       -0.5673794529       -0.7248024724
 C          4.9245354703       -1.3698579770       -0.2429620609
 S          6.6312765731       -1.1806300297       -0.5326335718
 C          6.9773726777       -2.5945412428        0.4470067049
 C          8.2327898337       -3.1190435447        0.6957246826
 C          8.3284296908       -4.2479363649        1.4895353638
 C          7.1879201097       -4.8389711731        2.0242072509
 C          5.9367733926       -4.3129437212        1.7753071308
 C          5.8130305819       -3.1769961436        0.9779285646
 C          4.6253549450       -2.4687932672        0.5855654091
 C          3.2981832806       -2.7437795581        0.9326913714
 C          2.2683548637       -1.9526642856        0.4769947443
 C          2.5738054734       -0.8749701187       -0.3536871974
 C          0.0085352504        1.4238795704        0.1048027647
 N          0.9649023281        2.4131552477        0.3820437557
 C          2.1531412574        2.1885991035        1.0416009202
 C          2.5297106102        1.1007731358        1.8156232328
 C          3.8027540788        1.1055306823        2.3547025072
 C          4.6691370822        2.1753163847        2.1513809859
 C          4.2726283836        3.2908698501        1.4325005000
 C          3.0024682968        3.3067944514        0.8799755407
 C          2.2632131706        4.2630817643        0.0996893075
 C          2.5565616796        5.5237787145       -0.3940981035
 C          1.6019349708        6.1748154521       -1.1557031643
 C          0.3739577286        5.5790164915       -1.4323170975
 C          0.0607249654        4.3205015849       -0.9558844780
 C          1.0092442573        3.6701204819       -0.1791528202
 H         -3.9111556970        0.6686888270       -2.1385007606
 H         -6.1195842380        0.3472208663       -3.1836823007
 H         -8.1451921854        0.1715665773       -1.8174303601
 H         -8.0331252754        0.3631588222        0.6436553445
 H         -7.1939510116        0.6372806712        3.2757656549
 H         -5.8665668445        0.8797724545        5.3470585137
 H         -3.4277101238        1.0734766234        5.2577825548
 H         -2.2295794910        1.0451937535        3.1058150007
 H         -2.7399058577       -1.5432313171        2.1706743597
 H         -4.4451198368       -2.6857849130        3.5342959311
 H         -6.2631527487       -3.9445895449        2.4802555854
 H         -6.4043696296       -4.1464351033        0.0216431198
 H         -5.9679340731       -3.9515560365       -2.7149260152
 H         -5.1062176357       -3.3885089908       -4.9623790730
 H         -3.1494456614       -1.9418230680       -5.2290851949
 H         -1.9769915000       -1.0174063530       -3.2688616175
 H          1.0081756311        2.2528256267       -2.5239905520
 H          2.7236588291        3.6268562872       -3.6389083418
 H          5.1040060198        3.0949676892       -3.4192283519
 H          5.8483747953        1.1289119108       -2.1123299734
 H          9.1113396658       -2.6552477177        0.2753178312
 H          9.2984599851       -4.6743955378        1.6936031031
 H          7.2841365499       -5.7203710528        2.6398265968
 H          5.0537392394       -4.7752969779        2.1896319771
 H          3.0862407203       -3.5876328927        1.5701333409
 H          1.2485759979       -2.1681339721        0.7501114116
 H          1.8531629205        0.2808278619        1.9976791281
 H          4.1297550809        0.2619077476        2.9442678937
 H          5.6598343698        2.1393458331        2.5780694692
 H          4.9382235855        4.1306299634        1.3055957350
 H          3.5109827980        5.9846551051       -0.1909106595
 H          1.8096181395        7.1595508087       -1.5458906972
 H         -0.3485834448        6.1113432727       -2.0323535739
 H         -0.8929226777        3.8672213644       -1.1733142701
  103
  -170.330409426300       0.117667891912979      !
 N         -1.4769741320        3.0622937356        2.4616718168
 C         -1.3371343176        2.1566572564        1.7530827637
 C         -1.1701703671        1.0771404323        0.8994404686
 C         -2.3026362607        0.3355092313        0.4322382169
 N         -3.5676828884        0.6262471291        0.9547865248
 C         -4.6946872746        0.8918852919        0.2071459907
 C         -4.7964630304        1.2054611058       -1.1399509986
 C         -6.0602980075        1.4233282788       -1.6555133792
 C         -7.1915784796        1.3577615642       -0.8476944351
 C         -7.0878268153        1.1026777560        0.5092800530
 C         -5.8311620540        0.8762368002        1.0466414550
 C         -5.3479005241        0.6068130989        2.3748190154
 C         -5.9680824307        0.4468320424        3.6031671426
 C         -5.1861406008        0.1568028855        4.7074699266
 C         -3.8052243288        0.0170238691        4.5934415282
 C         -3.1659132365        0.1661900876        3.3781591220
 C         -3.9435075105        0.4727150840        2.2702036306
 C         -2.1640954579       -0.6277588211       -0.5470776769
 N         -3.2757837588       -1.3679011701       -0.9649579805
 C         -4.1605900896       -2.0156945842       -0.1301999389
 C         -4.0285685494       -2.3225521426        1.2158142990
 C         -5.0773476976       -2.9797881082        1.8312478496
 C         -6.2164747506       -3.3470168614        1.1213060097
 C         -6.3256961619       -3.0947187282       -0.2357599897
 C         -5.2886375654       -2.4324127436       -0.8721762411
 C         -5.0491298072       -2.0275860628       -2.2319700416
 C         -5.7826425824       -2.1297557301       -3.4026781364
 C         -5.2548168251       -1.5933044516       -4.5640444537
 C         -4.0181430818       -0.9529450178       -4.5626803459
 C         -3.2720180843       -0.8340322367       -3.4063677865
 C         -3.7888636673       -1.3851494025       -2.2422283915
 C         -0.8852545957       -0.9140415672       -1.1208402090
 C         -0.7180917969       -1.9949749965       -1.9719496153
 N         -0.5736054418       -2.9038407150       -2.6759557587
 C          0.2465768742       -0.1779557311       -0.6482728126
 N          1.5180083616       -0.4754462299       -1.1563992932
 C          1.9298790280       -0.2818315422       -2.4565706734
 C          1.1766685794       -0.0298860893       -3.5944090387
 C          1.8519623241        0.1715219055       -4.7818609834
 C          3.2443202788        0.1356956579       -4.8418085211
 C          4.0024811677       -0.0993678552       -3.7100660452
 C          3.3446669949       -0.3096994279       -2.5080871153
 C          3.7921523322       -0.5444248199       -1.1668578338
 C          5.0250395485       -0.6162000487       -0.5394297635
 S          6.5881416914       -0.3874639220       -1.2690353754
 C          7.3725007473       -0.6054436359        0.2868333262
 C          8.7339654926       -0.5469963628        0.5226946511
 C          9.1855036135       -0.7352326735        1.8169629654
 C          8.2897910072       -0.9746811989        2.8539952888
 C          6.9316937560       -1.0340165868        2.6149032235
 C          6.4523685357       -0.8525411743        1.3197699825
 C          5.0951352641       -0.8657450412        0.8462164902
 C          3.9285150590       -1.0979999975        1.5786011855
 C          2.6918396871       -1.0101136081        0.9785771881
 C          2.6321638649       -0.6753033211       -0.3723719226
 C          0.1066261897        0.7956818523        0.3233753096
 N          1.2198163729        1.5429525668        0.7319886882
 C          1.7720375317        1.5272414984        1.9940446069
 C          1.2616276081        1.0019819382        3.1728858763
 C          2.0532391945        1.0649743170        4.3030411737
 C          3.3279724807        1.6255099677        4.2657456269
 C          3.8461459700        2.1419887294        3.0915204113
 C          3.0664566875        2.0980363983        1.9472269525
 C          3.2875824125        2.4968458844        0.5835899593
 C          4.3472514605        3.0890516798       -0.0842764526
 C          4.2123883508        3.3536310437       -1.4366906216
 C          3.0285741648        3.0686004606       -2.1098409852
 C          1.9601951465        2.4734415757       -1.4642316263
 C          2.1149983173        2.1514254594       -0.1246212159
 H         -3.9218957917        1.2864133044       -1.7650953995
 H         -6.1697670599        1.6513103579       -2.7050825069
 H         -8.1628793376        1.5278754069       -1.2862879249
 H         -7.9656192831        1.0837843131        1.1365867270
 H         -7.0391280188        0.5422783565        3.6940143717
 H         -5.6501243101        0.0324946149        5.6740039111
 H         -3.2230446094       -0.2139681824        5.4729187632
 H         -2.0970840403        0.0536602230        3.2989087930
 H         -3.1368382854       -2.0670823187        1.7651344034
 H         -5.0085579903       -3.2140837294        2.8828689411
 H         -7.0180927307       -3.8535689854        1.6365867094
 H         -7.1977393415       -3.4096035626       -0.7878083666
 H         -6.7468892866       -2.6142268775       -3.4058471502
 H         -5.8090386412       -1.6665438447       -5.4873068772
 H         -3.6359554336       -0.5398404717       -5.4840820703
 H         -2.3174557489       -0.3338298354       -3.4139051322
 H          0.1003772867       -0.0031729751       -3.5587024821
 H          1.2898645693        0.3610922809       -5.6838296151
 H          3.7343309319        0.2975786406       -5.7896729711
 H          5.0805617408       -0.1165964950       -3.7529906959
 H          9.4213537776       -0.3589518301       -0.2871991192
 H         10.2442421216       -0.6945188086        2.0222299054
 H          8.6624727996       -1.1160212289        3.8571582250
 H          6.2375550808       -1.2177695124        3.4209868568
 H          4.0016455145       -1.3309466082        2.6287997017
 H          1.7902522101       -1.1953740218        1.5400415545
 H          0.2772528338        0.5657692047        3.2116704439
 H          1.6770834470        0.6700755139        5.2350089521
 H          3.9179166187        1.6541555615        5.1693036880
 H          4.8389351100        2.5644859458        3.0633848601
 H          5.2572214377        3.3388482065        0.4397094659
 H          5.0305750703        3.8043142140       -1.9769986193
 H          2.9421552414        3.3127587313       -3.1578271716
 H          1.0376741502        2.2731189797       -1.9858956749
