52
 energy: -89.984625418338 gnorm: 0.000032728023 xtb: 6.7.1 (edcfbbe)
N           -5.87482174378393       -1.83456810374489       -0.74419148907906
C           -4.88906126212553       -1.28999217296555       -0.52795539593897
C           -3.66628946782717       -0.63413732354625       -0.26079866939056
C           -2.46039095796163       -1.27534886135972       -0.51954181412463
C           -1.24577596767947       -0.64526211791623       -0.27091775665429
N           -0.06045919134516       -1.29745096338452       -0.59339941266618
C            0.30390252721860       -2.58733135701531       -0.22215716241040
C           -0.39859863675225       -3.52708565546879        0.51416760397534
C            0.21527760978850       -4.74199750791312        0.76359033110783
C            1.49973098505665       -5.01750905716518        0.30222420588657
C            2.21487135975639       -4.07486875309164       -0.41059715220913
C            1.61641679464487       -2.84938541499515       -0.67393567935755
C            2.06421519094052       -1.66149517173282       -1.34604777344661
C            3.21717623518927       -1.26334896152830       -2.00308583746993
C            3.23288312459725        0.01456816782450       -2.54425565572092
C            2.11028881433832        0.82645304464403       -2.43051229221338
N            0.99480255701483        0.47490587780517       -1.80550750792470
C            0.99898756907839       -0.73084940393895       -1.26435386745911
C           -1.23901834986908        0.66024663359645        0.26835273718197
N           -0.04700028495612        1.29895907689422        0.59325484328487
C            0.33378329229363        2.58372726971921        0.22086215257338
C           -0.35572347438249        3.53071410071403       -0.51845513319431
C            0.27366781168720        4.73741891792663       -0.76901537720510
C            1.56055978713099        4.99786545655368       -0.30571208433438
C            2.26257055029516        4.04791974380572        0.41044835322080
C            1.64850396140495        2.83042390724250        0.67488964831682
C            2.08041000890659        1.63818185376895        1.34969161279547
C            3.22708507058076        1.22688341380528        2.00961748537769
C            3.22617108131999       -0.05049344511811        2.55232079758236
C            2.09417944181574       -0.84900131122323        2.43699417172056
N            0.98436074022514       -0.48474625578498        1.80916102293697
C            1.00417606678758        0.72036702731254        1.26691617849468
C           -2.44691778321750        1.30397699740959        0.51467098291259
C           -3.65947061143704        0.67618414976482        0.25404802845059
C           -4.87547503558094        1.34518901644903        0.51948165624150
N           -5.85574516165953        1.89998834036974        0.73469331714264
H           -2.46948693717441       -2.26439989362196       -0.95255813095147
H           -1.38446202721343       -3.32050533001183        0.90028738388220
H           -0.31449592649928       -5.49076595943298        1.33284442107026
H            1.94352017787222       -5.97806490259516        0.51547815435226
H            3.21778012726642       -4.27817570327759       -0.75341287597229
H            4.06832104024115       -1.92158889660369       -2.09446246952778
H            4.10479247971498        0.38066544650397       -3.06261717511043
H            2.09466787939654        1.81856836626320       -2.86076495255474
H           -1.34339282408931        3.33564395289809       -0.90597261900813
H           -0.24565157297750        5.49158498181613       -1.34076789113401
H            2.01671973268295        5.95235974188649       -0.52008971251618
H            3.26724466101736        4.23954188192029        0.75482982029299
H            4.08604773763380        1.87476920853334        2.10195161338430
H            4.09249923851692       -0.42637237154090        3.07303474713498
H            2.06565811119452       -1.84044358018354        2.86814862950306
H           -2.44562596612689        2.29318024268403        0.94745015094949
