112
 energy: -165.651863775769 gnorm: 0.000059783865 xtb: 6.7.1 (edcfbbe)
C           -6.05142875470575        6.28082337848050        0.32032174202469
C           -4.74471927015876        5.49536769630492        0.13293371449975
C           -3.80767808315586        5.74917305287125        1.32347739113183
C           -4.05560513345887        6.00719051899481       -1.13557423317542
C           -5.06497188743500        4.01033202241832        0.06716314278884
C           -4.75327345491488        3.21699656211438       -1.03098723520111
C           -5.05378739885917        1.86578277739968       -1.05361608280902
C           -5.67963162514970        1.27506022607397        0.03354348641349
N           -5.95657932818260       -0.11056001861631        0.02596820176051
C           -5.01173571395098       -1.11055639390510        0.04810386659165
C           -3.57311980156307       -0.91189195971902        0.10772449383792
C           -2.75608402796635       -1.86375790235035       -0.50666177995315
C           -1.38376967179027       -1.74176694744517       -0.47324564446669
C           -0.77941356392895       -0.67160372966513        0.18656088292990
C            0.68462700471738       -0.54772953362239        0.22923390247794
C            1.33150586106666       -0.17623480931760        1.40732976453172
C            2.70839102528720       -0.08009504478612        1.45643017406793
C            3.46589011295211       -0.34526539993146        0.32050336073015
N            4.88691305027480       -0.26568900566226        0.34770406359963
C            5.50917295327870        0.97394870006384        0.31723304822939
C            4.76518309845882        2.15282393748288        0.39012119489033
C            5.39535182372554        3.38063805377616        0.42913595117426
C            6.77713236329174        3.45442833315930        0.41184158292616
C            7.51872338685962        2.29035379209684        0.30286269381587
C            6.90500669039305        1.04913732796503        0.22986961160510
C            7.69582311132256       -0.21395814007131       -0.06399980381666
C            9.11351401837403       -0.09339647271499        0.47023201039597
C            9.28529125174781        0.19862716552172        1.82127122262227
C           10.54996807912914        0.29861535117407        2.36860812876346
C           11.66838750447374        0.10338187261706        1.57360743128008
C           11.50748480714645       -0.19604709963149        0.23278576219270
C           10.23865816138095       -0.29606268416421       -0.31585913411051
C            7.67619894439060       -0.40697099713573       -1.58449256730429
C            7.37906748782534       -1.63406690600286       -2.16408904677788
C            7.36144237781821       -1.78209308509741       -3.54124140864999
C            7.64450072915406       -0.70729403532903       -4.36476236361103
C            7.94904731172056        0.51895121287003       -3.79768906152972
C            7.96287191740010        0.66638730885051       -2.42278447691589
C            7.00788950248329       -1.38758726614653        0.60585471303677
C            7.72087304524653       -2.49922782134887        1.02859826422222
C            7.07738098696746       -3.61481751508187        1.53628468631872
C            5.69511086853022       -3.62810063300224        1.61098368817699
C            4.96723103067228       -2.52612285591552        1.20831634230764
C            5.61206348547917       -1.39085962167109        0.71353587589521
C            2.83199726104248       -0.70826388305335       -0.86027414132030
C            1.45430269759769       -0.81173865895401       -0.90210263236790
C           -1.59585962212472        0.26417252778725        0.81798055794637
C           -2.97122860228084        0.14957763093219        0.78209832056823
N           -5.55702974876442       -2.30461910198892        0.01643219624053
C           -6.89977885544162       -2.10195102001108       -0.02143141209583
C           -7.93106799975186       -3.08292391700186       -0.02440380361593
C           -7.63410221496969       -4.44979199024910        0.01726099221359
C           -8.64329039849334       -5.37992928837662        0.04462488188389
C           -9.96913879407616       -4.95037621631793        0.03434449095805
C          -10.27298917452617       -3.60955641868547       -0.01131081708233
C           -9.26980943595157       -2.62823623750028       -0.04894035090838
C           -9.55934494132654       -1.20596565996128       -0.12515969491108
C          -10.87485677637123       -0.72721416346117       -0.21224455447251
C          -11.15883646559960        0.61424532089189       -0.31610796381099
C          -10.12561198235898        1.54534137214384       -0.35640559861664
C           -8.82320469079766        1.11863044967358       -0.26964581050547
C           -8.51272474347681       -0.24254929872437       -0.13467175666028
C           -7.18134680092298       -0.73652358922678       -0.03046274317486
C           -6.00038221313474        2.05094870636657        1.14291695609655
C           -5.69665324593741        3.39724604286871        1.14926089911747
H           -5.84391485619891        7.34836832718131        0.34504652533325
H           -6.54971914603321        6.01071203011152        1.24726148435471
H           -6.73262616122187        6.08131289053098       -0.50469997818167
H           -3.55201066076832        6.80513087369619        1.37723919058353
H           -2.88894099874751        5.17735481709629        1.20790929058418
H           -4.27174526751511        5.46413428755231        2.26361127115369
H           -4.69010546099902        5.87328792530608       -2.00882885807504
H           -3.10804718873254        5.49905720622131       -1.29962440816209
H           -3.85132988941732        7.07076310763082       -1.03059773756725
H           -4.26750936961735        3.63919471027856       -1.89453325570572
H           -4.80058020567624        1.26386028687034       -1.91438370169072
H           -3.22487536885883       -2.69790422848685       -1.00588497586941
H           -0.76858166882343       -2.49440104561305       -0.94395809273777
H            0.75113805833753        0.01242764087152        2.29820917460744
H            3.20658445633620        0.19430177351729        2.37532733639301
H            3.68738131565837        2.10392439200078        0.41638937422711
H            4.80217816327772        4.28188252197899        0.48328360204641
H            7.27657413015504        4.41041378591546        0.46191408306254
H            8.59732063361080        2.34917913235162        0.26572272851307
H            8.41452777080884        0.34663423794086        2.44487630935767
H           10.66457029080290        0.52798212698025        3.41835389082255
H           12.65830059796835        0.18113569910003        1.99928809386958
H           12.37292558178771       -0.35650049728702       -0.39435335152852
H           10.13044434847038       -0.53801693714668       -1.36281909470783
H            7.15949803892395       -2.48871096511307       -1.54182869982087
H            7.12559748426048       -2.74620944834119       -3.96907655119765
H            7.63026022350127       -0.82349953652773       -5.43877765496939
H            8.17716539310067        1.36651798520287       -4.42817654586055
H            8.20128382278004        1.62936504868416       -1.99700592790709
H            8.79750521746381       -2.49932783568884        0.93984353706200
H            7.65214902134005       -4.47196801710465        1.85339550425284
H            5.17815737866336       -4.49805360842184        1.98914628105251
H            3.89020145476070       -2.54126078717447        1.27754488592059
H            3.42604051117126       -0.90915210005550       -1.73978948891802
H            0.96740726705483       -1.08266144813948       -1.82695607663205
H           -1.14847081990282        1.10138127319587        1.33332217778607
H           -3.57360720163406        0.88077954949666        1.29815944638553
H           -6.59449755182465       -4.74009488092938        0.03320884363688
H           -8.41637169976628       -6.43555306691630        0.07792205854749
H          -10.76788047436681       -5.67774254593035        0.06251552343352
H          -11.31322198233077       -3.32507143825128       -0.01481368363486
H          -11.69911968154677       -1.42187097850987       -0.20486432756379
H          -12.18571585443197        0.94369327814715       -0.37877689323141
H          -10.34487068710174        2.59798644105851       -0.45900752640210
H           -8.02404594621193        1.84066879911919       -0.31662279777312
H           -6.48744945275664        1.59215537436096        1.99181159343952
H           -5.95757188572680        3.97372534609186        2.02309868701237
