112
 energy: -165.566870906540 gnorm: 0.000037110260 xtb: 6.7.1 (edcfbbe)
C           -6.57510293678057        5.99608722428450        2.13697400286041
C           -5.37253181173878        5.59313856219586        1.27055582551806
C           -4.07310059986218        5.74968037628891        2.07475698519188
C           -5.30921886593958        6.54168966966796        0.06959524743189
C           -5.52329229866674        4.13658892943062        0.86000816413723
C           -5.59057672057720        3.72849871618331       -0.46779403226880
C           -5.72076727944109        2.39268958266283       -0.80538730336947
C           -5.78603751648693        1.42573738591378        0.18938567004493
N           -5.92204390866967        0.06147824409738       -0.15128182831345
C           -4.88291070922815       -0.86716059178423       -0.35565344069121
C           -3.50271754146980       -0.65904372419546       -0.25771507637627
C           -2.64602155725441       -1.77996552901434       -0.50705115012418
C           -1.29552579163052       -1.68234485326420       -0.43595838427889
C           -0.64373202610516       -0.46328009320383       -0.08784253717604
C            0.77702736093506       -0.36275431865241        0.01252385692603
C            1.40205696037660        0.66529380948266        0.76198201481498
C            2.76566000398662        0.76561469673722        0.85784770998535
C            3.59541328854115       -0.15591815173740        0.20774010492955
N            5.00338607232959       -0.09255446810452        0.29512542806758
C            5.71064813270444        1.00835118329368       -0.16358387960119
C            5.05632360715236        2.17202780677976       -0.58063373130740
C            5.77432162512640        3.29549180953824       -0.93454356702201
C            7.15856765896487        3.28279836844786       -0.88345919902905
C            7.81447297756288        2.10899556443618       -0.55390483141672
C            7.11274942521032        0.96018131057036       -0.22089881005301
C            7.81755282668031       -0.37470316181713       -0.07049359750458
C            9.24465563927266       -0.17536476395097        0.41639483870454
C            9.44050708358220        0.49814339589194        1.61965450160395
C           10.71357307150644        0.70023034078991        2.11740419924694
C           11.81473450622169        0.22876234477393        1.42009157546567
C           11.62872237312437       -0.44697250047360        0.22752032047196
C           10.35176550130530       -0.65005306955096       -0.27172405923762
C            7.78203471503356       -1.05852742572716       -1.44479110346247
C            7.50752509142252       -2.41470053022702       -1.57222273068054
C            7.48472278429896       -3.01913040465565       -2.81809622720967
C            7.73948349228419       -2.28024306989222       -3.95959911019225
C            8.02236865265657       -0.92988518420399       -3.84283567642072
C            8.04292818587290       -0.32613127482402       -2.59842822739196
C            7.05342983200084       -1.21819075545418        0.92639765322724
C            7.68920889600577       -2.17301224895125        1.70644897555070
C            6.97311585995000       -2.99809331713594        2.55595193945105
C            5.59514376678469       -2.86889293945937        2.63318628313683
C            4.94518734552804       -1.91776001154447        1.87531833872346
C            5.66152702171286       -1.08517318060451        1.00843180134424
C            3.00326959572689       -1.19788240061466       -0.51675739006880
C            1.64059366115361       -1.29406166352839       -0.61746077295904
C           -1.49800557947959        0.64945555578145        0.15665773404730
C           -2.85212869864876        0.56827952796946        0.06770338374141
N           -5.39715076743145       -2.07053498456137       -0.68341678870674
C           -6.71887279198185       -1.93530336690533       -0.69780281810530
C           -7.69439906130620       -2.93244080165818       -0.99619447037785
C           -7.30938930106871       -4.23515794373768       -1.32263006252426
C           -8.25518958768082       -5.19175379884192       -1.61371194466395
C           -9.60249323271143       -4.84478984826207       -1.58087533364695
C           -9.99389098904915       -3.56291755105603       -1.25973455275002
C           -9.05976906879550       -2.56089263712020       -0.95499095298915
C           -9.44144162182107       -1.20402250290663       -0.60897132918423
C          -10.78240981094182       -0.80930892884184       -0.55233376954114
C          -11.15979870199295        0.47319012721156       -0.22139480284519
C          -10.18997938032647        1.43272665506671        0.07473865340751
C           -8.86407286919909        1.09350270742479        0.03177860931133
C           -8.44968924075554       -0.21227157469607       -0.30795482201040
C           -7.09959693492873       -0.60833467005962       -0.36797290191748
C           -5.72482145942392        1.81432140828500        1.52358053003773
C           -5.59542628537192        3.15109209592649        1.84393201212946
H           -6.49344277442698        7.04232616001241        2.42333276631276
H           -6.63124337456879        5.39929589787109        3.04310555780157
H           -7.50145520430489        5.86196890069254        1.58158876123863
H           -3.93437310071383        6.79037782784135        2.35933128121609
H           -3.21987945136365        5.43882363277691        1.47481114450036
H           -4.09021343903328        5.14903016910572        2.97996056076015
H           -6.21975631335540        6.48630431471644       -0.52275188776744
H           -4.45490880928093        6.31565375811030       -0.56444337758527
H           -5.20194348611363        7.56491578936593        0.42376527542566
H           -5.54136325616290        4.44798340109975       -1.26796658515591
H           -5.77042167679970        2.09239089448483       -1.84227645756761
H           -3.12354929886162       -2.71624213503952       -0.74975315976840
H           -0.70158448968740       -2.56710957426355       -0.60822089971780
H            0.79304035407784        1.36128952292699        1.31715379866736
H            3.20957885544009        1.53446281844316        1.47438445291124
H            3.98000171320401        2.19147232391806       -0.63508252914282
H            5.24872419575235        4.18550961153024       -1.24696177329333
H            7.72526649921436        4.16658876083282       -1.13401238608769
H            8.89435270051239        2.08093274632273       -0.56712225409942
H            8.58344128616789        0.86551249887680        2.16658245493022
H           10.84793853237051        1.22593940595229        3.05171177417289
H           12.81103836054556        0.38597357552844        1.80682781121053
H           12.48061167813652       -0.82194556289307       -0.32143746610986
H           10.22361398234505       -1.18322938114994       -1.20196003816889
H            7.31113258106621       -3.01395493387758       -0.69596432845636
H            7.26734658795062       -4.07506695618916       -2.89229878509535
H            7.72001872402955       -2.75199424901093       -4.93119618726925
H            8.22920793712693       -0.34059214053460       -4.72461332185971
H            8.26784357533613        0.72720187310884       -2.52827524034949
H            8.76139679367120       -2.28031546365689        1.63509951464131
H            7.48734829449436       -3.73850038748190        3.14951361253463
H            5.02447083906530       -3.50427978234308        3.29389123252923
H            3.87550735943554       -1.80330729720464        1.95848934455148
H            3.63993637640223       -1.91366898790180       -1.01714220256525
H            1.22070488521725       -2.07844467081759       -1.22683524341038
H           -1.05706539149777        1.60918605615389        0.38176921118179
H           -3.43923613480951        1.45486464726117        0.24073173097681
H           -6.25368187136590       -4.45973896461303       -1.33768021009070
H           -7.95820297064793       -6.19897451215209       -1.86552141339840
H          -10.35314904906573       -5.58804346449319       -1.80888818372455
H          -11.04973487498452       -3.34419947094285       -1.24825765130772
H          -11.55992879231741       -1.52329922569787       -0.77195655913489
H          -12.20679351096116        0.73596943538515       -0.18984454465789
H          -10.48451990638918        2.43814927397577        0.33740655173655
H           -8.11768688829124        1.83584063775687        0.26260993622068
H           -5.77655073154704        1.06408628946147        2.29945708059494
H           -5.54986814300858        3.42244866295498        2.88720208773998
