30
 energy: -58.827854382836 gnorm: 0.000041537370 xtb: 6.7.1 (edcfbbe)
O            1.33457459751173        3.46365966852371        0.01123292059854
C            1.73425793459636        2.30804236464287        0.00694343463282
N            3.08317036434775        2.05362216886311        0.00099261167909
C            3.64245173598029        0.80555001159077       -0.00326308029380
C            4.99620033157210        0.47194900326963       -0.01063493104542
C            5.19710042889746       -0.88447549282687       -0.01286960771452
S            3.72458905336906       -1.80172347776193       -0.00565428613020
C            2.78290489295314       -0.33169524226766        0.00006073649773
C            1.40692199904051       -0.19953064930872        0.00523869891418
C            0.50310840841512       -1.30949949351142        0.00736874022940
C           -0.85047563203377       -1.12604253476863        0.00716249936267
C           -1.73426380266912       -2.30805543219769        0.00726190693710
O           -1.33457922141987       -3.46367169270064        0.01167594455776
N           -3.08317663737466       -2.05363427943546        0.00133518784110
C           -3.64245536613157       -0.80556588492749       -0.00277886057435
C           -4.99620826209262       -0.47196465301615       -0.01009548612132
C           -5.19710638198614        0.88445701900292       -0.01214207446414
S           -3.72459971510868        1.80170408085115       -0.00482156422191
C           -2.78291500936809        0.33168231893965        0.00064996952209
C           -1.40692942781667        0.19951874540149        0.00562514544812
C           -0.50311558962486        1.30948599811870        0.00765095907085
C            0.85046833088936        1.12603104549880        0.00702476103808
H            3.69312504741220        2.86360165328152       -0.00007751429990
H            5.79655109067093        1.18929095735140       -0.01438342114168
H            6.13202971679138       -1.40688642748982       -0.01838317446849
H            0.90339116783769       -2.31230534022964        0.00812619662243
H           -3.69313289342924       -2.86361375661391        0.00034728834925
H           -5.79655683003284       -1.18930854163736       -0.01394759972194
H           -6.13203667499919        1.40686909512199       -0.01758662485803
H           -0.90339844715335        2.31229206192395        0.00862844829829
