30
 energy: -58.910908479108 gnorm: 0.000071268802 xtb: 6.7.1 (edcfbbe)
O            1.65737638154619        3.29739160289466       -0.00001082410864
C            1.94771003884159        2.10931459048158       -0.00001016308529
N            3.26289869137149        1.72232737928319       -0.00001436225831
C            3.68668639423027        0.41765048415402       -0.00001373827183
C            5.02541431410779       -0.03879422589803       -0.00001802329976
C            5.09251382351168       -1.39551174182686       -0.00001602418218
S            3.54809604886150       -2.15488600611757       -0.00000874880843
C            2.76069656358441       -0.61155919496386       -0.00000848647523
C            1.36298378400043       -0.34434759514183       -0.00000381625183
C            0.38609838466622       -1.33722813167806        0.00000150319131
C           -0.96181484612357       -1.01596353885444        0.00000539857395
C           -1.94770989947129       -2.10931452157085        0.00001063664392
O           -1.65737622815094       -3.29739153037718        0.00001176939739
N           -3.26289854979479       -1.72232731584825        0.00001491159616
C           -3.68668625451291       -0.41765041909746        0.00001373068420
C           -5.02541417736013        0.03879428055182        0.00001743618105
C           -5.09251369549955        1.39551179685038        0.00001475364235
S           -3.54809592950737        2.15488607035800        0.00000811181234
C           -2.76069643177589        0.61155926798843        0.00000852205461
C           -1.36298365021566        0.34434767259606        0.00000419467417
C           -0.38609825130606        1.33722820847664       -0.00000079261672
C            0.96181498076302        1.01596361575257       -0.00000490288033
H            3.95307523600277        2.46390782629493       -0.00001802657363
H            5.88241241521246        0.60941687783974       -0.00002244497696
H            5.97236662867947       -2.00763284194320       -0.00001828905163
H            0.66938731571873       -2.37982746012020        0.00000246242949
H           -3.95307511596954       -2.46390774186438        0.00001872444702
H           -5.88241227676984       -0.60941682472704        0.00002163949889
H           -5.97236651252972        2.00763287986035        0.00001644159741
H           -0.66938718210549        2.37982753663640       -0.00000159359221
