73
 energy: -114.604974628066 gnorm: 0.000031756044 xtb: 6.7.1 (edcfbbe)
N            9.48445000966872        1.25026366064677        0.47840110364223
C            9.19640957130110        0.12685104130071        0.51702863566326
C            8.97825650939379       -1.24578495620833        0.54901496746891
C           10.11722926872870       -2.03959953298350        0.75666321566521
C           10.06041855770717       -3.40789806281341        0.68503840780966
C            8.83171780818833       -4.03256723415515        0.38460746338588
C            7.70729153128103       -3.28522562817579        0.18067506442589
C            7.69800403854913       -1.87084779284807        0.27822381160578
C            6.49331952785500       -1.13409344871571        0.14610723597753
C            6.32536404148592        0.15978584346816        0.72683442222669
C            5.17793207412863        0.87765419552529        0.57801224505350
C            4.08640114595541        0.35807286854966       -0.15396758294673
N            2.92731445318067        1.09394330006335       -0.31751271871654
C            2.86905284216108        2.44598951015023       -0.63548339028413
C            3.89783188144879        3.33204535387492       -0.91690328313884
C            3.55872091420439        4.63566403188465       -1.24292131001145
C            2.22985822366685        5.04612571458576       -1.30151256685556
C            1.19690764155816        4.15609285448441       -1.05951990402483
C            1.51381811995007        2.84613838975941       -0.73384729529880
C            0.72234593018164        1.67587264190631       -0.46391373674452
C           -0.63699026829140        1.44872801625656       -0.40337747149829
C           -1.10830670417527        0.16832346534407       -0.09642404469310
C           -2.54260093734713       -0.09627761391159       -0.05382591342336
C           -3.05013213780752       -1.33833502695960       -0.48002363725611
C           -4.39711205442819       -1.62180512340862       -0.47701777956310
C           -5.27353427574517       -0.63938875763323       -0.02480099492456
C           -4.78246151976054        0.60612074461333        0.44246313506464
C           -3.42824826799432        0.87776488265606        0.41478284368220
C           -5.93095746916797        1.35494857182456        0.88125825059530
C           -6.09667853106941        2.62420955103509        1.41635691123413
C           -7.37722826503028        3.05368062632440        1.71397380594824
C           -8.48129249598155        2.24116308027157        1.46912130947847
C           -8.34027886604476        0.97269411320783        0.93529729211533
C           -7.05578676069784        0.52794790547063        0.65781841480735
N           -6.63877283956533       -0.67229289636633        0.11064599763084
C           -7.47710805876404       -1.73859007241002       -0.25754057788195
C           -8.39403686038205       -2.25260515773028        0.65468371350681
C           -9.22156160816447       -3.29702002468150        0.28395299816531
C           -9.13710104711906       -3.83757351253255       -0.98902927112869
C           -8.22071381407604       -3.32918330306690       -1.89547615878671
C           -7.39341523312688       -2.28049906686913       -1.53690838751455
C           -0.18091051538393       -0.85581042837137        0.18524451147989
C            1.17878506815102       -0.64492721961656        0.14506330005627
C            1.64178389278698        0.61918266303044       -0.21386762859731
C            4.21572515450773       -0.93348368400432       -0.71355141368455
C            5.36674876716870       -1.64675704039842       -0.57002093515981
H           11.05503972765709       -1.53994530985375        0.96464751918645
H           10.94566933598878       -4.00325946778919        0.84972914448356
H            8.78561382072597       -5.11048354732619        0.32893443779325
H            6.77325748895538       -3.79361779278504       -0.00625644207050
H            7.11369010878087        0.55656060643853        1.34679849855307
H            5.06698488499385        1.82725363312977        1.08062066441095
H            4.93090872307087        3.02136237979825       -0.90001697170934
H            4.34430027657889        5.34317100868208       -1.46136275504912
H            2.00453352319097        6.07120470740442       -1.55529320935227
H            0.16711594343054        4.47069019860369       -1.13111078395978
H           -1.32863073128235        2.24769741707286       -0.62049378403104
H           -2.36159028190076       -2.08211953629322       -0.85078446951777
H           -4.76005752585034       -2.58170008571852       -0.81105257748788
H           -3.05728383156733        1.81880455054813        0.78992593318366
H           -5.24357701047477        3.26130090463691        1.59370451130584
H           -7.52796069536610        4.03682385733911        2.13462986220079
H           -9.47015230617264        2.61030245936109        1.69798911458558
H           -9.20311321325606        0.35660057670946        0.73358776409106
H           -8.44264268734767       -1.84168395904598        1.65210493870485
H           -9.93075191849918       -3.69416676477486        0.99492502186961
H           -9.78382108233356       -4.65368210710582       -1.27390600350598
H           -8.15454858960365       -3.74519802705751       -2.88982839685320
H           -6.69216602479057       -1.86746677967492       -2.24664352960972
H           -0.54980053458704       -1.82507675361371        0.48294331267983
H            1.86493212008188       -1.43481924383376        0.40834635472269
H            3.41187510178331       -1.32048279275974       -1.32256227006398
H            5.45351906246348       -2.59811833145284       -1.07109663996038
