73
 energy: -114.696819022199 gnorm: 0.000075594645 xtb: 6.7.1 (edcfbbe)
N            9.38702628921005        1.41892768219750       -0.01162538191306
C            9.22343916131554        0.29603425674590       -0.19027703860404
C            9.08930182389852       -1.08702456805379       -0.44300158390275
C           10.25011609042394       -1.83232527661683       -0.66306881736678
C           10.15998797184220       -3.17644493114890       -0.96602060970881
C            8.91429578038152       -3.78082328073503       -1.06037660390726
C            7.76235017647073       -3.04530092830384       -0.84716173376595
C            7.82450452814942       -1.69238073205995       -0.52762248983581
C            6.59740624391953       -0.91797651767315       -0.29398629086278
C            6.47400569253653       -0.08691885987774        0.81735421027856
C            5.32272998027686        0.64550365700516        1.02549305578725
C            4.27300423803723        0.57633733841850        0.11243693201807
N            3.11837993078564        1.34517564554656        0.30036709810228
C            3.08592734009963        2.70422949474232        0.55397757297312
C            4.13223751941221        3.60856416933527        0.67124094313484
C            3.81702824026240        4.93399989972156        0.90486682356755
C            2.49464059237512        5.36086417539747        1.00854210158239
C            1.44892724545002        4.47048210276773        0.86511384316688
C            1.74062327030673        3.13294110607646        0.63099058514931
C            0.92682485072298        1.96906189095995        0.41093910854677
C           -0.44356357872874        1.76156993712144        0.37006619887388
C           -0.93080361068424        0.47956103258030        0.14969092131059
C           -2.38078711276131        0.23665692967481        0.07553029721627
C           -3.19343261398691        1.11070605962597       -0.66053978686694
C           -4.55617943624970        0.92730835924463       -0.77283881047868
C           -5.12489267170853       -0.15446390348800       -0.11479575778653
C           -4.32188174775035       -1.05602041110384        0.62134366104838
C           -2.95205424437966       -0.85720237946953        0.71230676977155
C           -5.20823280635788       -2.06308729538438        1.13562457611673
C           -5.02239218066495       -3.18187476358963        1.93765122624138
C           -6.12277300795587       -3.94422833415744        2.27629317007116
C           -7.39857131634906       -3.59568210051135        1.83665871525410
C           -7.60873626725096       -2.48836378849970        1.03709055986342
C           -6.50385207435236       -1.72999468778956        0.67552743399965
N           -6.43891077540947       -0.57527135124266       -0.07817126212781
C           -7.51963146440252        0.05395443550838       -0.71711527484097
C           -8.36388292714945       -0.67870676917048       -1.54652894586147
C           -9.42702726644701       -0.05511206334801       -2.17395178538745
C           -9.64966386562398        1.29989752746702       -1.99054945131208
C           -8.80763453102091        2.03109985068783       -1.16868052167404
C           -7.74858999295818        1.41376986038082       -0.52817468547571
C           -0.03115300596771       -0.58403181748820       -0.00474882320000
C            1.33623527612621       -0.39906296786149        0.02397991184175
C            1.81682108136025        0.88939354086406        0.21130129525848
C            4.38638310538121       -0.26084435250344       -0.99567225641420
C            5.53133554669752       -1.00648617127388       -1.18744571507563
H           11.21097055773348       -1.34242256703927       -0.59779423228051
H           11.05814417961874       -3.75129871560182       -1.13263397155169
H            8.84276906927789       -4.83121824000179       -1.30001020911717
H            6.79584845958904       -3.52292801994414       -0.90937566649289
H            7.27668122871828       -0.03086854313393        1.53822478550794
H            5.22795421317931        1.26745195064059        1.90265677387050
H            5.16074095073249        3.29505178147066        0.57308444784074
H            4.61517139910720        5.65523882836448        1.00434622761228
H            2.28968229959046        6.40496886408355        1.19493109566510
H            0.42357209517598        4.80326250723551        0.92856958321629
H           -1.12396630080375        2.58489485418175        0.52880171820860
H           -2.72993995687660        1.93971407665681       -1.17548028758134
H           -5.15608762707945        1.59995933241330       -1.36732136012292
H           -2.34045294809712       -1.53695532116045        1.28673819616066
H           -4.03615769093062       -3.44340725407578        2.29174050494866
H           -5.99948462435134       -4.81871003709295        2.89851708280206
H           -8.24256200932897       -4.20293848086794        2.13043910868365
H           -8.60301558417414       -2.21743814578528        0.71499579647177
H           -8.17464827168377       -1.73039335941911       -1.70338493813636
H          -10.07858380476455       -0.62882843344715       -2.81669854789219
H          -10.47720076090168        1.78460746729572       -2.48658211586706
H           -8.97954148576749        3.08695155319970       -1.01907408673081
H           -7.10190841707713        1.97597261538732        0.12911238804986
H           -0.42385089561224       -1.57649062882191       -0.17148837949087
H            2.00731642910559       -1.23691998708799       -0.09070784633842
H            3.58171219086123       -0.30600258833363       -1.71396354838197
H            5.61795282747155       -1.63766520984481       -2.05967490386506
