73
 energy: -114.696909656533 gnorm: 0.000079249250 xtb: 6.7.1 (edcfbbe)
N            9.25662968726381        1.16327329906310        0.15513461758795
C            9.05227581306862        0.04866324681390       -0.03296444779422
C            8.86990815399446       -1.32742956621555       -0.29376837881605
C           10.00733220181843       -2.12591842223719       -0.43678589230748
C            9.87632034887209       -3.46568552633373       -0.74391854687136
C            8.61335620852104       -4.01271834042738       -0.92121222793432
C            7.48484837262435       -3.22483661425341       -0.78335890644842
C            7.58691793188522       -1.87534236350571       -0.45895454180328
C            6.38095028242522       -1.05209814474320       -0.29233753564014
C            6.23228863092563       -0.21769939515425        0.81359557348665
C            5.09537511940683        0.54863815768110        0.97067780484789
C            4.08505695100158        0.50895442380309        0.01250140930849
N            2.93862534658874        1.29829072872218        0.16249028865161
C            2.91995586958057        2.65138627601018        0.44518795354480
C            3.97668699037449        3.53972041008382        0.58815450517964
C            3.67613445599223        4.86415194641817        0.84530247276660
C            2.35819741418681        5.30507022355063        0.94755613271692
C            1.30253077768103        4.43062671362471        0.78049265387190
C            1.57928322511651        3.09420860276638        0.52284218081021
C            0.75366293633708        1.94350675703897        0.27810318382055
C           -0.61882836914738        1.74927499539567        0.24150851583941
C           -1.11997705222549        0.47640078658924       -0.00096659815058
C           -2.57242116427299        0.24356818550434       -0.05023584410689
C           -3.40381223546787        1.15420105253467       -0.71817515036670
C           -4.77090083954140        0.98339189046848       -0.79220286601257
C           -5.32460075565409       -0.12530454690176       -0.16687127781595
C           -4.50263626475575       -1.06704220434244        0.49397079792956
C           -3.12998505776818       -0.87733218047251        0.55145763858747
C           -5.37655357998327       -2.09728613285140        0.98304836522854
C           -5.16861528440993       -3.26224999551960        1.71039057732320
C           -6.26038886953287       -4.04013111668038        2.04137583082389
C           -7.54870799462828       -3.66236893433677        1.66744814300188
C           -7.78093363673222       -2.50874457839624        0.94291333495292
C           -6.68527114823502       -1.73442973557210        0.58712874237297
N           -6.63930559437602       -0.54086022883294       -0.10515896791468
C           -7.73955063298079        0.13290660789625       -0.65994226664561
C           -8.62557301548328       -0.54308351970498       -1.49385527477257
C           -9.70866752973401        0.12423771713169       -2.03640797110672
C           -9.91095485809502        1.46707745499629       -1.76242129633738
C           -9.02712818003470        2.14227253432179       -0.93651797320124
C           -7.94716703454845        1.48065271741204       -0.38086538798756
C           -0.23033910916507       -0.59019774589177       -0.19060319489681
C            1.13873543924103       -0.41927231829661       -0.16225624458619
C            1.63271435459904        0.85883450813430        0.05763315143844
C            4.22615903109721       -0.32527696257277       -1.09441483820255
C            5.35673745486558       -1.10370018779413       -1.23635278077741
H           10.98332206560267       -1.68043243667942       -0.30836700874014
H           10.75638945100204       -4.08155940507222       -0.84917980323259
H            8.50922981113781       -5.05946744669985       -1.16482630361986
H            6.50392660067593       -3.65882042602522       -0.90727996143748
H            7.00118699356293       -0.18827053017739        1.57173936340363
H            4.97836618891883        1.17189967974295        1.84427219296974
H            5.00175173945413        3.21416372178832        0.49231725994258
H            4.48216312268063        5.57349682035632        0.96479298785124
H            2.16469421099721        6.34797128410390        1.15209552764087
H            0.28105535137133        4.77513713028051        0.84383195322887
H           -1.28970853878731        2.57526659339171        0.42466904639500
H           -2.95325548585258        2.00377173021809       -1.21056228373451
H           -5.38648353355021        1.68709163278943       -1.33229589996217
H           -2.50510310397818       -1.58631493812105        1.07374832548412
H           -4.17205706515792       -3.54707168426107        2.01394559251111
H           -6.11995249168309       -4.95066803109777        2.60554926219091
H           -8.38504416118625       -4.28357225209113        1.95387063035137
H           -8.78437999647609       -2.21709499412038        0.67140103293794
H           -8.45304512909541       -1.58464517029080       -1.72153639235694
H          -10.39252103690050       -0.40550180605219       -2.68324702981035
H          -10.75499104926629        1.98595351020929       -2.19156653765345
H           -9.18285787337492        3.18829702564079       -0.71661222233426
H           -7.26707833964842        1.99848841349847        0.27917192820490
H           -0.63211094594801       -1.57448848728814       -0.38197469270320
H            1.80083307115124       -1.26074190010439       -0.29986049628883
H            3.45396858103408       -0.34515156330240       -1.84867249706945
H            5.46474128882249       -1.73449477830843       -2.10643937734259
