  73
       -119.41000391
 O          6.3259952344        2.9065410197       -1.2907809644
 C          5.9538113828        1.9013796761       -0.7116031397
 C          6.8762026630        0.9510173454       -0.0698308490
 C          8.2550856936        1.1763057443       -0.0992707156
 C          9.1254389391        0.2936640345        0.4974290647
 C          8.6302239020       -0.8391890308        1.1373355617
 C          7.2749986117       -1.0833931472        1.1797834698
 C          6.3887759596       -0.1893839551        0.5776390660
 O          5.0685045178       -0.4865430605        0.6574872665
 C          4.1698377156        0.3525794748        0.0890317993
 C          2.8260787084        0.0039989541        0.2029688607
 C          1.8396722015        0.8092503090       -0.3445541672
 C          0.4227473780        0.4366467824       -0.2233660891
 C         -0.5444032058        1.4114751965       -0.0009868870
 C         -1.8875086874        1.0632536926        0.0963996370
 N         -2.8512779813        2.0529375883        0.3135280857
 C         -3.8501463337        2.0201910521        1.2691627431
 C         -4.1136050287        1.0677513729        2.2426831171
 C         -5.1728286525        1.2974002483        3.1001251129
 C         -5.9502248210        2.4490707257        3.0046012368
 C         -5.6758702506        3.4132024523        2.0554757268
 C         -4.6165838654        3.2045463081        1.1823667722
 C         -4.0490698924        3.9829865069        0.1167621907
 C         -4.3713671313        5.2118978200       -0.4435830455
 C         -3.6154358114        5.6750556067       -1.5018964893
 C         -2.5618747781        4.9210131456       -2.0132594051
 C         -2.2229111872        3.6953470344       -1.4724191497
 C         -2.9605978769        3.2379263347       -0.3902644065
 C         -2.2710550833       -0.2689245664       -0.0138682285
 C         -1.3062816778       -1.2479676555       -0.2213189997
 N         -1.6814672725       -2.5921492348       -0.3224399856
 C         -1.1101460680       -3.6371265291        0.3781413896
 C         -0.1242275196       -3.6112678509        1.3536435370
 C          0.2475859665       -4.8123317848        1.9269354194
 C         -0.3489073159       -6.0132693542        1.5497083341
 C         -1.3479598367       -6.0417037096        0.5972624894
 C         -1.7391576874       -4.8470780210        0.0072471374
 C         -2.7334690390       -4.5067595007       -0.9721777698
 C         -3.6413415641       -5.2547165108       -1.7100534373
 C         -4.4620222786       -4.6010049944       -2.6071931785
 C         -4.3759863754       -3.2219455991       -2.7832630659
 C         -3.4802877414       -2.4563420187       -2.0612424233
 C         -2.6686235937       -3.1050118384       -1.1423742265
 C          0.0337592094       -0.8942682182       -0.3334721572
 C          2.2117076704        1.9794301883       -1.0193613835
 C          3.5357845664        2.3231287328       -1.1367478088
 C          4.5392820404        1.5214962674       -0.5852322680
 H          8.6042235529        2.0644503730       -0.6041002072
 H         10.1886806660        0.4751620782        0.4699167878
 H          9.3112511406       -1.5337436761        1.6056247097
 H          6.8737897850       -1.9552424389        1.6720471422
 H          2.5767409716       -0.8952408106        0.7441982767
 H         -0.2541825351        2.4415857803        0.1353085538
 H         -3.5065571997        0.1804330766        2.3409358830
 H         -5.3999257562        0.5682828309        3.8637797430
 H         -6.7715105794        2.5897976238        3.6912779612
 H         -6.2667288971        4.3143741040        1.9918382562
 H         -5.1999970967        5.7870560721       -0.0590448335
 H         -3.8466298266        6.6299122896       -1.9497211869
 H         -1.9996139619        5.3005969879       -2.8536152577
 H         -1.4192104131        3.1087466773       -1.8916582480
 H         -3.3120325021       -0.5418569464        0.0618258856
 H          0.3282517292       -2.6825270618        1.6680198697
 H          1.0141953782       -4.8193176204        2.6877617865
 H         -0.0291219267       -6.9312727003        2.0197411190
 H         -1.8222605091       -6.9702305471        0.3177595991
 H         -3.6968022746       -6.3254446143       -1.5845835334
 H         -5.1762573421       -5.1635559686       -3.1896756720
 H         -5.0209234604       -2.7399461384       -3.5029649945
 H         -3.4094668918       -1.3907492515       -2.2197860968
 H          0.7659849986       -1.6582247825       -0.5435853327
 H          1.4519798973        2.6016801560       -1.4664480703
 H          3.8424387761        3.2176794272       -1.6575332007
