  70
       -121.44409037
 O         -6.5206556556       -0.9724980854       -1.0520423835
 N         -5.8459177702       -1.6690209099       -0.3231877470
 O         -6.2787899751       -2.5637041560        0.3723516674
 C         -4.4304198906       -1.4135575929       -0.2779826163
 C         -3.8939618731       -0.3902174005       -1.0524465829
 C         -2.5418216049       -0.1361215438       -0.9954152415
 C         -1.7122759340       -0.8951441323       -0.1635904870
 C         -0.2726592545       -0.6277528396       -0.0736704999
 C          0.2579649275        0.6270466068       -0.0810541727
 C          1.6986672041        0.8894212462       -0.1738263494
 C          2.2573047754        1.9329476135        0.5705837230
 C          3.6113160517        2.1810364226        0.5235324160
 C          4.4202602865        1.3886461238       -0.2829279449
 N          5.8379439317        1.6318531461       -0.3226321044
 O          6.5133603951        0.9107703040       -1.0264076087
 O          6.2717599702        2.5420681098        0.3516078301
 C          3.8788271630        0.3670108873       -1.0560792739
 C          2.5246752846        0.1232061826       -1.0024786861
 N         -0.5596034494        1.7472066592        0.0810292374
 C         -1.5619827202        1.9045408258        1.0255500463
 C         -1.8955038609        1.0983149823        2.1027967983
 C         -2.9370201577        1.5052804075        2.9147574866
 C         -3.6265584333        2.6904826736        2.6724765322
 C         -3.2734299388        3.5154610362        1.6232414919
 C         -2.2292794862        3.1269283568        0.7948649905
 C         -1.5934856603        3.7359416280       -0.3423282746
 C         -1.8085639295        4.9190082799       -1.0358013742
 C         -1.0028151539        5.2042282818       -2.1207359142
 C         -0.0017050808        4.3236407753       -2.5221057994
 C          0.2292782912        3.1382753132       -1.8488535689
 C         -0.5653389975        2.8577972166       -0.7483460805
 N          0.5482479045       -1.7447750781        0.0966943239
 C          1.5579674137       -1.8875701624        1.0355335959
 C          1.8867659740       -1.0751381502        2.1096085396
 C          2.9396435350       -1.4658229174        2.9149102714
 C          3.6445124665       -2.6413298807        2.6696091763
 C          3.2959098452       -3.4731310992        1.6243120780
 C          2.2407917251       -3.1007509092        0.8023341792
 C          1.6074587193       -3.7192893401       -0.3311218631
 C          1.8359719492       -4.8991548537       -1.0258542225
 C          1.0297586306       -5.1953146296       -2.1074940477
 C          0.0145333469       -4.3289394624       -2.5041081702
 C         -0.2300371653       -3.1469695298       -1.8295774447
 C          0.5655223953       -2.8554658134       -0.7326466259
 C         -2.2661249000       -1.9395100158        0.5835488059
 C         -3.6183236086       -2.1966677854        0.5344078502
 H         -4.5470407125        0.1885500503       -1.6871080671
 H         -2.1210140730        0.6425101449       -1.6125658563
 H          1.6227196142        2.5367418937        1.2020412169
 H          4.0589352959        2.9727822692        1.1042270373
 H          4.5296066951       -0.2187860079       -1.6866458044
 H          2.0998239099       -0.6542448771       -1.6186572897
 H         -1.3587909692        0.1857930470        2.3132032002
 H         -3.2192513550        0.8908284055        3.7562758619
 H         -4.4397434462        2.9699964517        3.3246255154
 H         -3.7916640786        4.4455999739        1.4490662782
 H         -2.5916253975        5.5963505385       -0.7315736638
 H         -1.1515366809        6.1200649962       -2.6726019313
 H          0.6062954966        4.5688981880       -3.3797222491
 H          1.0024868238        2.4584510480       -2.1735615032
 H          1.3379757990       -0.1700966502        2.3222759870
 H          3.2191029839       -0.8459847388        3.7534012089
 H          4.4665170599       -2.9078498815        3.3163143742
 H          3.8264703553       -4.3961351794        1.4479263916
 H          2.6296060677       -5.5655144006       -0.7251969896
 H          1.1890903999       -6.1086116359       -2.6604758761
 H         -0.5938308810       -4.5826034363       -3.3589957271
 H         -1.0142319447       -2.4779874324       -2.1506772421
 H         -1.6289191213       -2.5375405997        1.2178029418
 H         -4.0618467668       -2.9897846764        1.1163115033
