  70
       -121.44409037
 O         -6.5206556556       -0.9724980854       -1.0520423835
 N         -5.8459177702       -1.6690209099       -0.3231877470
 O         -6.2787899751       -2.5637041560        0.3723516674
 C         -4.4304198906       -1.4135575929       -0.2779826163
 C         -3.8939618731       -0.3902174005       -1.0524465829
 C         -2.5418216049       -0.1361215438       -0.9954152415
 C         -1.7122759340       -0.8951441323       -0.1635904870
 C         -0.2726592545       -0.6277528396       -0.0736704999
 C          0.2579649275        0.6270466068       -0.0810541727
 C          1.6986672041        0.8894212462       -0.1738263494
 C          2.2573047754        1.9329476135        0.5705837230
 C          3.6113160517        2.1810364226        0.5235324160
 C          4.4202602865        1.3886461238       -0.2829279449
 N          5.8379439317        1.6318531461       -0.3226321044
 O          6.5133603951        0.9107703040       -1.0264076087
 O          6.2717599702        2.5420681098        0.3516078301
 C          3.8788271630        0.3670108873       -1.0560792739
 C          2.5246752846        0.1232061826       -1.0024786861
 N         -0.5596034494        1.7472066592        0.0810292374
 C         -1.5619827202        1.9045408258        1.0255500463
 C         -1.8955038609        1.0983149823        2.1027967983
 C         -2.9370201577        1.5052804075        2.9147574866
 C         -3.6265584333        2.6904826736        2.6724765322
 C         -3.2734299388        3.5154610362        1.6232414919
 C         -2.2292794862        3.1269283568        0.7948649905
 C         -1.5934856603        3.7359416280       -0.3423282746
 C         -1.8085639295        4.9190082799       -1.0358013742
 C         -1.0028151539        5.2042282818       -2.1207359142
 C         -0.0017050808        4.3236407753       -2.5221057994
 C          0.2292782912        3.1382753132       -1.8488535689
 C         -0.5653389975        2.8577972166       -0.7483460805
 N          0.5482479045       -1.7447750781        0.0966943239
 C          1.5579674137       -1.8875701624        1.0355335959
 C          1.8867659740       -1.0751381502        2.1096085396
 C          2.9396435350       -1.4658229174        2.9149102714
 C          3.6445124665       -2.6413298807        2.6696091763
 C          3.2959098452       -3.4731310992        1.6243120780
 C          2.2407917251       -3.1007509092        0.8023341792
 C          1.6074587193       -3.7192893401       -0.3311218631
 C          1.8359719492       -4.8991548537       -1.0258542225
 C          1.0297586306       -5.1953146296       -2.1074940477
 C          0.0145333469       -4.3289394624       -2.5041081702
 C         -0.2300371653       -3.1469695298       -1.8295774447
 C          0.5655223953       -2.8554658134       -0.7326466259
 C         -2.2661249000       -1.9395100158        0.5835488059
 C         -3.6183236086       -2.1966677854        0.5344078502
 H         -4.5470407125        0.1885500503       -1.6871080671
 H         -2.1210140730        0.6425101449       -1.6125658563
 H          1.6227196142        2.5367418937        1.2020412169
 H          4.0589352959        2.9727822692        1.1042270373
 H          4.5296066951       -0.2187860079       -1.6866458044
 H          2.0998239099       -0.6542448771       -1.6186572897
 H         -1.3587909692        0.1857930470        2.3132032002
 H         -3.2192513550        0.8908284055        3.7562758619
 H         -4.4397434462        2.9699964517        3.3246255154
 H         -3.7916640786        4.4455999739        1.4490662782
 H         -2.5916253975        5.5963505385       -0.7315736638
 H         -1.1515366809        6.1200649962       -2.6726019313
 H          0.6062954966        4.5688981880       -3.3797222491
 H          1.0024868238        2.4584510480       -2.1735615032
 H          1.3379757990       -0.1700966502        2.3222759870
 H          3.2191029839       -0.8459847388        3.7534012089
 H          4.4665170599       -2.9078498815        3.3163143742
 H          3.8264703553       -4.3961351794        1.4479263916
 H          2.6296060677       -5.5655144006       -0.7251969896
 H          1.1890903999       -6.1086116359       -2.6604758761
 H         -0.5938308810       -4.5826034363       -3.3589957271
 H         -1.0142319447       -2.4779874324       -2.1506772421
 H         -1.6289191213       -2.5375405997        1.2178029418
 H         -4.0618467668       -2.9897846764        1.1163115033
  70
       -121.44391897
 O         -6.5968144787       -1.0759445011       -0.9002008691
 N         -5.8783253266       -1.8245872126       -0.2722033641
 O         -6.2616596829       -2.8040205700        0.3330426813
 C         -4.4707850724       -1.5294008087       -0.2421050607
 C         -3.9799519014       -0.4522914240       -0.9727626440
 C         -2.6349829641       -0.1603849925       -0.9290037297
 C         -1.7659990027       -0.9330545552       -0.1509955893
 C         -0.3346699529       -0.6334283380       -0.0738450390
 C          0.1930489899        0.6225794294       -0.1007089536
 C          1.6404040280        0.8609871833       -0.2004419802
 C          2.2287915732        1.8615050759        0.5778297821
 C          3.5882401464        2.0792043586        0.5274993710
 C          4.3708206914        1.2997760751       -0.3162738428
 N          5.7938963470        1.5115357283       -0.3605132919
 O          6.4434405888        0.8135332247       -1.1103509482
 O          6.2571611517        2.3730613202        0.3566803872
 C          3.7991303580        0.3215477207       -1.1229721774
 C          2.4399807593        0.1079658214       -1.0656780075
 N         -0.5998350994        1.7582658120        0.0530302934
 C         -1.5983734504        1.9543748762        0.9959749805
 C         -1.9953409216        1.1443377270        2.0484411379
 C         -3.0144351671        1.5984807087        2.8643407574
 C         -3.6213690195        2.8329828029        2.6504384557
 C         -3.2045576046        3.6599462247        1.6263489099
 C         -2.1818248609        3.2242957720        0.7950548032
 C         -1.4965118151        3.8234890227       -0.3183305997
 C         -1.6253436609        5.0404272854       -0.9734673075
 C         -0.7902071208        5.3072619170       -2.0406861195
 C          0.1524065772        4.3740210206       -2.4635395901
 C          0.2960815562        3.1540616652       -1.8286884837
 C         -0.5242937199        2.8922401160       -0.7423940530
 N          0.5135849129       -1.7327201992        0.1020105005
 C          1.5160002519       -1.8433767163        1.0516966520
 C          1.7874552333       -1.0341018823        2.1439855963
 C          2.8478561494       -1.3849221252        2.9575032608
 C          3.6152155780       -2.5183920952        2.7013600329
 C          3.3247848891       -3.3477300880        1.6363511823
 C          2.2630716934       -3.0153819668        0.8056998649
 C          1.6776786723       -3.6413629797       -0.3492528833
 C          1.9752769581       -4.7923383378       -1.0660066856
 C          1.1999803025       -5.1045116622       -2.1656490128
 C          0.1460837213       -4.2832075306       -2.5579914805
 C         -0.1678410969       -3.1306298403       -1.8617370542
 C          0.5988271043       -2.8227162686       -0.7488906692
 C         -2.2753247003       -2.0303294792        0.5528380631
 C         -3.6191620278       -2.3278082667        0.5134747583
 H         -4.6627185084        0.1373501090       -1.5647601804
 H         -2.2505920681        0.6586993563       -1.5164301922
 H          1.6142677439        2.4559336623        1.2374081313
 H          4.0593865819        2.8375851409        1.1335717512
 H          4.4301888560       -0.2550981868       -1.7814257569
 H          1.9907069115       -0.6364498298       -1.7051589679
 H         -1.5241648341        0.1923946352        2.2389312149
 H         -3.3441176605        0.9814616317        3.6864790857
 H         -4.4196678929        3.1490530941        3.3043264323
 H         -3.6572729605        4.6274748989        1.4739823194
 H         -2.3641829319        5.7583195012       -0.6524300029
 H         -0.8695652367        6.2495129255       -2.5610429856
 H          0.7847071027        4.6051421694       -3.3073556435
 H          1.0239100164        2.4352947507       -2.1731441415
 H          1.1888190592       -0.1627707273        2.3630054238
 H          3.0835187603       -0.7674886800        3.8110956838
 H          4.4406985411       -2.7545204476        3.3552915742
 H          3.9053823680       -4.2382777959        1.4516888753
 H          2.7980661728       -5.4240509045       -0.7687793990
 H          1.4142744883       -5.9952116352       -2.7363952636
 H         -0.4371042726       -4.5492472673       -3.4265865640
 H         -0.9818221776       -2.4951450815       -2.1772914785
 H         -1.6093823934       -2.6376743240        1.1474701690
 H         -4.0272729709       -3.1617765198        1.0634713387
