  51
        -72.37207105
 C          5.0713939464       -0.2567972010       -0.0600227984
 C          3.7232489876       -0.7927607970        0.2922529151
 C          3.6179497910       -2.0544656669        0.9404050033
 C          2.3976412633       -2.5562372496        1.2777748691
 C          1.2192746002       -1.8311337929        0.9956371026
 C          1.3069575919       -0.5551873837        0.3372651338
 C          2.5603029653       -0.0885130273        0.0017201187
 C          0.0494776828        0.1847028810       -0.0300166081
 C          0.2770510599        1.6424405763        0.3186715762
 C          0.8117864971        2.5472960227       -0.5946113388
 C          1.0559527882        3.8579150821       -0.2235288417
 C          0.7813209029        4.2839620241        1.0639182891
 C          0.2659927972        3.3837533737        1.9846188855
 C          0.0188402057        2.0758019028        1.6145792734
 C         -0.3015977847       -0.0668952319       -1.4968440782
 C          0.0749097963       -1.2554532375       -2.1260531973
 C         -0.2844336655       -1.5080183055       -3.4331783797
 C         -1.0305298083       -0.5831183721       -4.1516319345
 C         -1.4149401497        0.5976262815       -3.5338308354
 C         -1.0656097768        0.8517386389       -2.2238682695
 C         -1.1907207456       -0.3706730418        0.6097211455
 C         -2.4044403936        0.3039511520        0.5999342340
 C         -3.5751061528       -0.2669789795        1.0534565817
 C         -4.8662650304        0.4809746646        1.0619144418
 C         -3.5530371058       -1.6177027332        1.5362494979
 C         -2.3777522612       -2.3059120256        1.5894761480
 C         -1.1779242735       -1.7103571483        1.1648783938
 N          0.0075414266       -2.3442229722        1.3253665210
 H          4.9904224517        0.7083483249       -0.5532876314
 H          5.6826252985       -0.1396254573        0.8363371305
 H          5.5961778232       -0.9456562222       -0.7238175317
 H          4.5185522332       -2.6073987197        1.1599347034
 H          2.3079913408       -3.5166683250        1.7681336044
 H          2.6469072354        0.8629800914       -0.5011028007
 H          1.0323870591        2.2288736784       -1.6033747306
 H          1.4658811594        4.5492896774       -0.9461085308
 H          0.9700433936        5.3079207903        1.3508146907
 H          0.0569590982        3.7036329126        2.9951938112
 H         -0.3811208596        1.3781781327        2.3369474930
 H          0.6680883202       -1.9833642528       -1.5919337142
 H          0.0241643297       -2.4323018083       -3.9006242014
 H         -1.3088991795       -0.7812130448       -5.1756331984
 H         -1.9983255472        1.3262170441       -4.0789355753
 H         -1.3841395228        1.7743271891       -1.7632399967
 H         -2.4294156338        1.3190565668        0.2315339751
 H         -4.7376696433        1.4883310624        0.6748888286
 H         -5.6085191882       -0.0362517826        0.4525032538
 H         -5.2652626087        0.5438164297        2.0756057450
 H         -4.4748727708       -2.0706915365        1.8649669100
 H         -2.3462528558       -3.3177846651        1.9727192684
 H         -0.0083053836       -3.2628742603        1.7540142113
  51
        -72.37202175
 C          5.0447621184       -0.3224581632       -0.2356220627
 C          3.7083707107       -0.8172968514        0.2083069195
 C          3.6225621443       -2.0239316634        0.9604614357
 C          2.4127469056       -2.4929545601        1.3725062306
 C          1.2265151026       -1.7908692343        1.0666037813
 C          1.2951240842       -0.5636822533        0.3160038519
 C          2.5390488020       -0.1306037079       -0.0937765646
 C          0.0332878209        0.1701277444       -0.0498757287
 C          0.2666411670        1.6219571284        0.3281773078
 C          0.8221449352        2.5407950050       -0.5593029393
 C          1.0672280519        3.8427825010       -0.1604632978
 C          0.7730392907        4.2484669810        1.1292584256
 C          0.2360711730        3.3346394532        2.0244740130
 C         -0.0121272947        2.0355564584        1.6270414599
 C         -0.2973154780       -0.0561956380       -1.5240528961
 C          0.0594839019       -1.2522588709       -2.1480688771
 C         -0.2765963060       -1.4913264613       -3.4640490480
 C         -0.9791632824       -0.5424309359       -4.1951867800
 C         -1.3463995820        0.6446804741       -3.5817576834
 C         -1.0198429655        0.8848042930       -2.2621266038
 C         -1.2043860485       -0.3833078919        0.5979914112
 C         -2.4285445171        0.2638037317        0.5293936761
 C         -3.5934583699       -0.2914455701        1.0218827633
 C         -4.8991098276        0.4278020526        0.9554890392
 C         -3.5466010720       -1.5938574169        1.6184528501
 C         -2.3601058730       -2.2537882443        1.7280102526
 C         -1.1692122311       -1.6746002390        1.2525516502
 N          0.0236402776       -2.2828873771        1.4526258955
 H          4.9494708079        0.5930301353       -0.8133480951
 H          5.6847450652       -0.1255078729        0.6255203304
 H          5.5462794108       -1.0723208220       -0.8486740275
 H          4.5291736405       -2.5600609717        1.1958316113
 H          2.3371047859       -3.4114957084        1.9395726393
 H          2.6114209506        0.7792283130       -0.6698979201
 H          1.0571866053        2.2424679639       -1.5707669557
 H          1.4929057439        4.5443589327       -0.8639021670
 H          0.9627021883        5.2659904548        1.4374504526
 H          0.0101831266        3.6377587260        3.0366208742
 H         -0.4304807276        1.3291613094        2.3302240624
 H          0.6151361432       -1.9988729652       -1.5990996788
 H          0.0144848876       -2.4229949796       -3.9278202320
 H         -1.2376713232       -0.7285057943       -5.2267104556
 H         -1.8971715281        1.3910314102       -4.1367288944
 H         -1.3236662780        1.8145389763       -1.8056440697
 H         -2.4714335815        1.2441483112        0.0783135750
 H         -5.2910636303        0.6019940184        1.9585494112
 H         -4.7928881793        1.3849399250        0.4525161136
 H         -5.6357181721       -0.1706967241        0.4186745193
 H         -4.4605096415       -2.0343866069        1.9845294806
 H         -2.3103054024       -3.2301141179        2.1926639937
 H          0.0194737167       -3.1669478589        1.9490571127
  51
        -72.37193532
 C          5.0488069085       -0.3071866969       -0.2060157949
 C          3.7160610340       -0.8134003196        0.2374911511
 C          3.6195674481       -2.0481705697        0.9357239624
 C          2.4051957725       -2.5271798916        1.3240743139
 C          1.2232235895       -1.8076323345        1.0398260199
 C          1.3020002945       -0.5570119549        0.3325358486
 C          2.5489542988       -0.1116931200       -0.0489191363
 C          0.0427071944        0.1810870250       -0.0339772184
 C          0.2707458648        1.6355791983        0.3331474419
 C         -0.0082445702        2.0562079652        1.6294983498
 C          0.2333624389        3.3596104936        2.0174992393
 C          0.7643247283        4.2696514737        1.1150080989
 C          1.0600512139        3.8565058301       -0.1718080708
 C          0.8212428194        2.5501661427       -0.5611569740
 C         -0.2920548038       -0.0581659834       -1.5059418842
 C          0.0673320106       -1.2564206656       -2.1255665181
 C         -0.2764527797       -1.5053662641       -3.4374528022
 C         -0.9896539752       -0.5655187126       -4.1700494507
 C         -1.3584358486        0.6239658407       -3.5615326571
 C         -1.0245051254        0.8742647734       -2.2461108739
 C         -1.1977320835       -0.3739427442        0.6060744381
 C         -2.4192304150        0.2816372806        0.5505641923
 C         -3.5882373690       -0.2818921975        1.0204574281
 C         -4.8911414705        0.4431561807        0.9657699900
 C         -3.5510796840       -1.6020102651        1.5802564561
 C         -2.3681571618       -2.2709869348        1.6765766649
 C         -1.1727259665       -1.6852629946        1.2232493314
 N          0.0164452399       -2.3055492886        1.4069929993
 H          5.8210151741       -0.5585245571        0.5187006144
 H          5.3299117273       -0.7621987178       -1.1587640100
 H          5.0287820980        0.7710401100       -0.3442287769
 H          4.5212127399       -2.5997840917        1.1544648457
 H          2.3227541101       -3.4665548845        1.8547666692
 H          2.6298777917        0.8187851977       -0.5901222251
 H         -0.4220109071        1.3521684006        2.3378368177
 H          0.0080405230        3.6687955014        3.0278151667
 H          0.9488021305        5.2903738754        1.4158867432
 H          1.4824066886        4.5549159854       -0.8803712608
 H          1.0570621364        2.2447763662       -1.5702371661
 H          0.6322379771       -1.9966088040       -1.5777129409
 H          0.0175550221       -2.4379387457       -3.8973460563
 H         -1.2547756804       -0.7597859979       -5.1982867940
 H         -1.9159989805        1.3642651417       -4.1179103692
 H         -1.3292694102        1.8058400017       -1.7935961780
 H         -2.4547684754        1.2747524376        0.1272966393
 H         -4.7781166422        1.4163684279        0.4949535186
 H         -5.6242274341       -0.1358560493        0.4021522694
 H         -5.2929558582        0.5854924984        1.9706193621
 H         -4.4690717558       -2.0479178679        1.9290244837
 H         -2.3257571391       -3.2604054409        2.1135724119
 H          0.0064921400       -3.2051799299        1.8745344372
  51
        -72.37191657
 C          5.0646617960       -0.2669862373       -0.1046220155
 C          3.7241079541       -0.8136654103        0.2620469423
 C          3.6209692446       -2.0580517547        0.9386687827
 C          2.4023838791       -2.5482080306        1.3000548866
 C          1.2228383894       -1.8248691374        1.0145186096
 C          1.3086010473       -0.5628660224        0.3311365767
 C          2.5587941445       -0.1084525898       -0.0268889672
 C          0.0516989126        0.1795089732       -0.0350789808
 C          0.2793334717        1.6357070658        0.3237937589
 C          0.8175132431        2.5472569695       -0.5809454287
 C          1.0474058025        3.8585723670       -0.2037230723
 C          0.7554260473        4.2789441073        1.0815175052
 C          0.2401844867        3.3712808884        1.9951706368
 C          0.0071164043        2.0627435714        1.6189206106
 C         -0.2938916220       -0.0628537199       -1.5045162993
 C          0.0718935066       -1.2551021788       -2.1324392527
 C         -0.2883820446       -1.5049327309       -3.4397366673
 C         -1.0249557913       -0.5730198553       -4.1593873267
 C         -1.3964867553        0.6120969950       -3.5437812182
 C         -1.0457911738        0.8636602600       -2.2332587163
 C         -1.1893659775       -0.3732910786        0.6052609594
 C         -2.4054046440        0.2952399108        0.5750879144
 C         -3.5756617120       -0.2678387318        1.0402755736
 C         -4.8705744311        0.4728478440        1.0189179436
 C         -3.5486054333       -1.6039230392        1.5636215761
 C         -2.3712992234       -2.2859897684        1.6360975275
 C         -1.1730620489       -1.6994427458        1.1929909486
 N          0.0131054001       -2.3283732963        1.3651749034
 H          5.4729293618        0.3215898234        0.7205782316
 H          5.7671428757       -1.0708790232       -0.3173805953
 H          4.9944633098        0.3833915445       -0.9739954848
 H          4.5204248399       -2.6124407248        1.1596511979
 H          2.3152647378       -3.4985234787        1.8099339109
 H          2.6446419905        0.8326325044       -0.5488626862
 H          1.0503824365        2.2341613553       -1.5883540452
 H          1.4582767081        4.5555738777       -0.9203822086
 H          0.9306264180        5.3040309075        1.3725389534
 H          0.0185288054        3.6867952250        3.0042735880
 H         -0.3953931740        1.3603707026        2.3352045657
 H          0.6552444741       -1.9891771985       -1.5958183487
 H          0.0104976462       -2.4328181551       -3.9059592401
 H         -1.3053101054       -0.7698657158       -5.1830151222
 H         -1.9713439562        1.3469226289       -4.0895400700
 H         -1.3550313158        1.7902118133       -1.7747777102
 H         -2.4340608658        1.2995274885        0.1783950121
 H         -4.7465651712        1.4659333651        0.5951360581
 H         -5.6088196558       -0.0704535196        0.4272437584
 H         -5.2724239561        0.5706237045        2.0288228153
 H         -4.4690867777       -2.0498722502        1.9054858184
 H         -2.3360042338       -3.2865322250        2.0476602219
 H         -0.0007565850       -3.2370150693        1.8147683707
  51
        -72.37185111
 C          5.0595048964       -0.2485015846       -0.1023567413
 C          3.7236135830       -0.8044047029        0.2679436056
 C          3.6217743979       -2.0480992034        0.9432646764
 C          2.4034513209       -2.5414186267        1.3021850453
 C          1.2224716474       -1.8200584503        1.0148678398
 C          1.3072609175       -0.5573888036        0.3336259047
 C          2.5561105618       -0.1006209784       -0.0223146917
 C          0.0490387842        0.1838800634       -0.0318830973
 C          0.2798177521        1.6398130171        0.3240533669
 C          0.8212399100        2.5474764280       -0.5824460921
 C          1.0683289782        3.8554182155       -0.2039561402
 C          0.7899020797        4.2761361982        1.0843527801
 C          0.2667957819        3.3733057632        1.9982756925
 C          0.0165334789        2.0682517597        1.6207849990
 C         -0.3004655515       -0.0632786520       -1.4991484898
 C          0.0615665169       -1.2589767681       -2.1234913788
 C         -0.3015146641       -1.5128956106       -3.4291406059
 C         -1.0374351570       -0.5821713303       -4.1508739010
 C         -1.4071753458        0.6056879747       -3.5381298408
 C         -1.0537430321        0.8614433236       -2.2295045297
 C         -1.1909656736       -0.3709365171        0.6083279644
 C         -2.4085239799        0.2961434355        0.5798803391
 C         -3.5794901171       -0.2748875077        1.0322590883
 C         -4.8777042322        0.4603210035        1.0066005856
 C         -3.5524424271       -1.6165683559        1.5413421877
 C         -2.3734415027       -2.2959330931        1.6156417627
 C         -1.1745417787       -1.7019875767        1.1855136786
 N          0.0127140738       -2.3286655161        1.3585201727
 H          5.3898291824        0.4756846689        0.6459532497
 H          5.8070754014       -1.0366209592       -0.1599889149
 H          5.0122284487        0.2669689594       -1.0601247158
 H          4.5216747802       -2.6011460504        1.1662900512
 H          2.3169490953       -3.4920745072        1.8114532240
 H          2.6426614968        0.8396824093       -0.5454738274
 H          1.0450510589        2.2336642417       -1.5918609743
 H          1.4836901838        4.5487651327       -0.9215293259
 H          0.9816324297        5.2977589694        1.3776086708
 H          0.0548193233        3.6893008619        3.0094703986
 H         -0.3886139279        1.3683567711        2.3380581474
 H          0.6441486846       -1.9923764967       -1.5850751206
 H         -0.0058012383       -2.4432725791       -3.8927582027
 H         -1.3194669074       -0.7818454232       -5.1735579482
 H         -1.9815460541        1.3391134228       -4.0862850868
 H         -1.3600000837        1.7901398976       -1.7728275638
 H         -2.4369890586        1.3043774275        0.1932202097
 H         -5.3169074828        0.4984889849        2.0046854574
 H         -4.7452542190        1.4766965413        0.6436160059
 H         -5.5899778753       -0.0511172722        0.3573413335
 H         -4.4738760872       -2.0689742890        1.8718354030
 H         -2.3382388616       -3.3001733534        2.0180150072
 H         -0.0002149481       -3.2396349294        1.8033678414
  51
        -72.37179143
 C          5.0586751676       -0.2286052790       -0.0684366316
 C          3.7262351370       -0.7979272398        0.2946229011
 C          3.6204332668       -2.0504948816        0.9477035582
 C          2.3997300216       -2.5532091478        1.2867819541
 C          1.2191856993       -1.8296252600        0.9987589745
 C          1.3080966990       -0.5599803218        0.3331564064
 C          2.5576116774       -0.0947979629       -0.0033510527
 C          0.0508681280        0.1827397181       -0.0347904756
 C          0.2811131842        1.6392473705        0.3184169125
 C          0.8111808593        2.5489716210       -0.5922492259
 C          1.0546887578        3.8583523848       -0.2156870084
 C          0.7853649378        4.2774499766        1.0749587697
 C          0.2761236758        3.3717169235        1.9937414313
 C          0.0286240259        2.0656478678        1.6178573453
 C         -0.2997238620       -0.0670082930       -1.5012989441
 C          0.0693140921       -1.2593252860       -2.1282448494
 C         -0.2946849031       -1.5138538771       -3.4334437520
 C         -1.0387638938       -0.5875957686       -4.1524506095
 C         -1.4162642643        0.5964713673       -3.5369529724
 C         -1.0621862192        0.8526360397       -2.2288126169
 C         -1.1894022632       -0.3706963502        0.6062901429
 C         -2.4028514314        0.3039269939        0.5927382021
 C         -3.5739515845       -0.2644880857        1.0478046883
 C         -4.8665437168        0.4806749911        1.0440161491
 C         -3.5523455753       -1.6132330153        1.5394345349
 C         -2.3776341893       -2.3014584255        1.5965526348
 C         -1.1775613706       -1.7091410594        1.1679388732
 N          0.0078853684       -2.3412860408        1.3325018932
 H          5.8608585279       -0.9159120718        0.1883972427
 H          5.1083930545       -0.0178035356       -1.1372903681
 H          5.2275027833        0.7129512433        0.4565621202
 H          4.5187607680       -2.6051287035        1.1738457590
 H          2.3110797297       -3.5109039581        1.7820303304
 H          2.6485527722        0.8529630577       -0.5123112440
 H          1.0296092870        2.2358102048       -1.6030462737
 H          1.4601120899        4.5537746935       -0.9368615404
 H          0.9740627842        5.3001189854        1.3665854388
 H          0.0725906267        3.6861025865        3.0071469249
 H         -0.3674552867        1.3634846567        2.3380363067
 H          0.6589624305       -1.9892378490       -1.5927879943
 H          0.0071522379       -2.4412945272       -3.8988281925
 H         -1.3213750539       -0.7875617771       -5.1747493711
 H         -1.9976330718        1.3262222646       -4.0826878981
 H         -1.3760110887        1.7775398648       -1.7697916731
 H         -2.4276348916        1.3171232854        0.2188171460
 H         -5.5908170682       -0.0206726952        0.3997589367
 H         -5.2923196187        0.5134630425        2.0481210505
 H         -4.7302081084        1.4986814349        0.6877759300
 H         -4.4743959830       -2.0634562273        1.8706978509
 H         -2.3460264822       -3.3109116847        1.9860046411
 H         -0.0077145730       -3.2574000389        1.7666173245
  51
        -72.37150592
 C          4.9773310898       -0.4248846979       -0.4993113662
 C          3.6809895776       -0.8572413324        0.1030869492
 C          3.6324990994       -1.9389068447        1.0263956905
 C          2.4429137201       -2.3430763597        1.5511478747
 C          1.2393485311       -1.6963364090        1.1904039933
 C          1.2723089668       -0.5821580193        0.2771274954
 C          2.4948551603       -0.2154517576       -0.2410706457
 C          0.0045442581        0.1419497908       -0.0922069072
 C          0.2568788181        1.5776751400        0.3460582283
 C         -0.0400531083        1.9505105809        1.6546533254
 C          0.2303124173        3.2262925873        2.1062831764
 C          0.8064257765        4.1617125844        1.2579590469
 C          1.1146730413        3.7978702088       -0.0413137020
 C          0.8497216322        2.5186618224       -0.4944755480
 C         -0.2940123005       -0.0310581374       -1.5764777263
 C          0.0366795333       -1.2289196067       -2.2078354729
 C         -0.2737025607       -1.4390602327       -3.5355037199
 C         -0.9257122017       -0.4560001012       -4.2677607626
 C         -1.2688121861        0.7329601049       -3.6467760067
 C         -0.9642369753        0.9444422660       -2.3155764872
 C         -1.2298833780       -0.4114433745        0.5652099597
 C         -2.4737623986        0.1668626289        0.3911582389
 C         -3.6289134463       -0.3621572813        0.9419462451
 C         -4.9626599445        0.2731254915        0.7350617699
 C         -3.5392571320       -1.5558925956        1.7275777884
 C         -2.3315920548       -2.1452989439        1.9415548091
 C         -1.1550201005       -1.5977388803        1.3901789481
 N          0.0524900642       -2.1441207956        1.6656312368
 H          5.8188213685       -0.8914816775        0.0074312609
 H          5.0185724377       -0.7004525497       -1.5553373969
 H          5.0867673897        0.6578897117       -0.4406432435
 H          4.5494596644       -2.4363691034        1.3029674601
 H          2.3956143810       -3.1691181464        2.2485180148
 H          2.5424872202        0.6025637065       -0.9436338048
 H         -0.4910149452        1.2306465876        2.3230732012
 H         -0.0101309859        3.4959038952        3.1245532499
 H          1.0143256366        5.1613829025        1.6091679843
 H          1.5685251253        4.5156099616       -0.7101034191
 H          1.0994910371        2.2569794869       -1.5121384013
 H          0.5481073462       -2.0014504281       -1.6511949655
 H         -0.0041293090       -2.3736529893       -4.0061433277
 H         -1.1647735087       -0.6184661549       -5.3079968950
 H         -1.7813226357        1.5047418912       -4.2035593219
 H         -1.2428217405        1.8799350862       -1.8538080579
 H         -2.5493520425        1.0679082457       -0.1985770964
 H         -5.4207599866        0.5254506986        1.6927693706
 H         -4.8765220642        1.1782522977        0.1396768236
 H         -5.6370773289       -0.4165950337        0.2245887115
 H         -4.4404222510       -1.9734373945        2.1485874297
 H         -2.2501614376       -3.0409713203        2.5438132558
 H          0.0704920135       -2.9519765024        2.2781858141
  51
        -72.37143730
 C          4.8888936064       -0.6743884327       -0.7906489159
 C          3.6324772254       -0.9241986938       -0.0218540342
 C          3.6571544869       -1.7152771660        1.1682863605
 C          2.5020508756       -1.9785571006        1.8416337882
 C          1.2711446442       -1.4730822187        1.3817450185
 C          1.2338077145       -0.6195069275        0.2128709817
 C          2.4263553079       -0.3971404806       -0.4525329500
 C         -0.0429371496        0.0768630128       -0.1677236687
 C          0.2644591517        1.4807432524        0.3511817399
 C          0.9341991840        2.4185261597       -0.4395276567
 C          1.2501671316        3.6648311199        0.0623129708
 C          0.9267633703        4.0038647895        1.3669889287
 C          0.2756689516        3.0723607322        2.1651362130
 C         -0.0515265756        1.8295483902        1.6652785917
 C         -0.3204172176       -0.0037741311       -1.6566572919
 C         -0.0332837862       -1.1836786622       -2.3352508566
 C         -0.3435830692       -1.3228531470       -3.6740260004
 C         -0.9525017254       -0.2832564740       -4.3617709553
 C         -1.2497785483        0.8912317421       -3.6933151772
 C         -0.9410920353        1.0316161125       -2.3519343798
 C         -1.2655726603       -0.4740312353        0.5154661190
 C         -2.5400643443       -0.0653184862        0.1838498858
 C         -3.6731104120       -0.5433039370        0.8308616950
 C         -5.0432524838       -0.1006076685        0.4383234663
 C         -3.5147943521       -1.4783275683        1.8946443335
 C         -2.2730410359       -1.8964581503        2.2632783684
 C         -1.1240493959       -1.4174540817        1.5960586471
 N          0.1100810911       -1.8218352377        1.9844412792
 H          5.0362589740        0.3942024702       -0.9489207332
 H          5.7538362052       -1.0720134195       -0.2656158163
 H          4.8363681906       -1.1450346575       -1.7739513769
 H          4.5991753393       -2.1046620982        1.5215774400
 H          2.5090137714       -2.5889973566        2.7352703126
 H          2.4183654768        0.2074386933       -1.3477353312
 H          1.2075397364        2.1738447579       -1.4547196032
 H          1.7610993909        4.3779219783       -0.5693232689
 H          1.1808945407        4.9771911401        1.7587443709
 H          0.0188442535        3.3211597917        3.1849920525
 H         -0.5690671892        1.1237931912        2.2988575476
 H          0.4375311319       -1.9994448736       -1.8047944673
 H         -0.1123467944       -2.2464784638       -4.1847444062
 H         -1.1948538961       -0.3911891177       -5.4086726834
 H         -1.7294311162        1.7054416636       -4.2180237941
 H         -1.1820843005        1.9547660005       -1.8447528758
 H         -2.6687749965        0.6495647048       -0.6146281323
 H         -5.5413625950        0.3927204123        1.2747782115
 H         -5.0041958001        0.5908259214       -0.3994736000
 H         -5.6561170181       -0.9577802126        0.1551256624
 H         -4.3925842146       -1.8479035195        2.4021529718
 H         -2.1424455407       -2.6030736003        3.0724189263
 H          0.1660876078       -2.4549455530        2.7744456060
