61
 energy: -95.547802919417 gnorm: 0.000032516567 xtb: 6.7.1 (edcfbbe)
C            1.53469903569110        0.75865922791170        2.88730849470230
C            0.41516005336808        0.24236834017937        2.26011067888605
C            0.53003627048713       -0.38095541084605        1.01892064655103
C           -0.65228589567813       -0.93204928972307        0.34227762924897
C           -0.60147059411153       -2.15346870549372       -0.33299407766898
N           -1.63575356467773       -2.68829642137072       -0.95540686333015
C           -2.78492427224892       -2.04061101334898       -0.95321774298975
C           -2.96543218455125       -0.81688765602031       -0.30429089833874
N           -4.20049343144089       -0.16465674641268       -0.32455790122845
C           -5.42633631432760       -0.74245440720863       -0.04439522638636
C           -5.72207171928100       -2.03332028003760        0.36958378235702
C           -7.04609641014778       -2.34431681714532        0.61702088792113
C           -8.05639553374763       -1.39655188222010        0.46785251846432
C           -7.76493726110977       -0.10380400266793        0.07971579079385
C           -6.44158344904864        0.23208718485760       -0.17624754616931
C           -5.79090097286585        1.45211382962710       -0.56804613307991
C           -6.25477464591045        2.72641578478306       -0.86886100613947
C           -5.34198674408985        3.69131608318262       -1.24671961618960
C           -3.98427699279025        3.39397466842143       -1.34121914968855
C           -3.49918068962260        2.13308974284383       -1.04792071645775
C           -4.40872270001664        1.16604480448466       -0.64420287917634
C           -1.87273207604364       -0.26317997515020        0.35712603557781
C            1.78142606561984       -0.46972343272871        0.41801600332921
C            2.90547539327096        0.05062780440246        1.04901164588414
N            4.16087296564171       -0.04549724090744        0.43093389126522
C            4.72225172332385       -1.19968254325662       -0.07959776068576
C            4.23877714435743       -2.50044032076266       -0.06172568620224
C            5.02136024049395       -3.48864303318584       -0.62800923107147
C            6.26189809210516       -3.19900480381988       -1.19305824125250
C            6.75984578512426       -1.91106514354800       -1.19079522696324
C            5.99123527057810       -0.90045227032292       -0.62698461172942
C            6.19524804038408        0.50892866263552       -0.43717224132828
C            7.22571623815915        1.37909441417318       -0.77012361044104
C            7.09119335945578        2.71654175872673       -0.45413117941971
C            5.94143780375990        3.19204055655619        0.17358561245564
C            4.90332941149290        2.34608254697438        0.51519126896063
C            5.04286418495701        0.99677053470688        0.22176003024587
C            2.77983589844229        0.66491352804437        2.29235792957753
H            1.43844760175353        1.23096752925377        3.85362506102914
H           -0.54818845744179        0.30258903069934        2.74347810840340
H            0.30868931700754       -2.73684416693030       -0.36291856450523
H           -3.59390062289745       -2.50566064158513       -1.50041891551720
H           -4.94647064093398       -2.77227191561513        0.50446972676125
H           -7.30159035931604       -3.34433007300018        0.93552380461873
H           -9.07931582969114       -1.67922610273241        0.66841909545643
H           -8.54590531950266        0.63484658632834       -0.02077378056652
H           -7.30915023498819        2.95159046957446       -0.81283851428252
H           -5.68187193184190        4.68887890269186       -1.48296296084809
H           -3.29469748481972        4.16401741073894       -1.65498668916323
H           -2.44707339095632        1.91145964368158       -1.14631603086335
H           -1.97403002676967        0.68142086370706        0.87075847473678
H            1.88112869907213       -0.91613172400678       -0.56008068572482
H            3.28758773591722       -2.73768091147855        0.39054741972028
H            4.66503647243821       -4.50860654815124       -0.62994502573191
H            6.84274930362124       -3.99843521436828       -1.62939028598054
H            7.72849919955881       -1.69031927853128       -1.61396294500190
H            8.11020464804869        1.01345427033696       -1.27020229320157
H            7.88224782075440        3.40896465663498       -0.70253128807099
H            5.85796718452229        4.24627732012627        0.39474421491636
H            4.01007739642231        2.72764754939121        0.98644326364035
H            3.65725139502559        1.05138426689868        2.78822150990512
