61
 energy: -95.448084803430 gnorm: 0.000068866544 xtb: 6.7.1 (edcfbbe)
C            1.53048556497917        2.76614292504198        0.56253606902867
C            0.44351017253271        1.93159676634631        0.51616144666138
C            0.58608600880264        0.52270431407225        0.34214871822098
C           -0.53939089367782       -0.34234895052624        0.33093957866778
C           -0.42456379447534       -1.77462848675444        0.39108817456358
N           -1.44379256386556       -2.57221749724389        0.43457480535649
C           -2.69337784540450       -2.13921496994757        0.35624829387350
C           -2.93945291426471       -0.74977894731693        0.13232318820238
N           -4.25095728903976       -0.31759491606835       -0.02921037557252
C           -4.85598841121694        0.71860856315861        0.65558688080379
C           -4.33754417069109        1.54430543793249        1.64312940445077
C           -5.16882180586915        2.51584128045868        2.17373466428130
C           -6.48476566199802        2.65810090617512        1.74104623988646
C           -7.01577685422171        1.81808714523887        0.77673792960122
C           -6.20248329285673        0.83537221212577        0.23269562939477
C           -6.41354911079039       -0.19752847439020       -0.74760414140353
C           -7.50259037969223       -0.57941996580949       -1.51642214761013
C           -7.35152012870000       -1.63541641375395       -2.39952548834070
C           -6.13285942400101       -2.29653543541772       -2.52987493204087
C           -5.03076373707415       -1.93032115905632       -1.77671428443935
C           -5.18388780817922       -0.88779512082638       -0.87342006189848
C           -1.87903104280161        0.11762438194791        0.14484809087035
C            1.91284766798233        0.04596103756551        0.19971402054113
C            2.99455328815949        0.89791633347404        0.23235081795106
N            4.29115647832511        0.38018469034050        0.06186760060934
C            4.83927690492299       -0.67546886626024        0.75577564020495
C            4.29756691723660       -1.42934377208219        1.78965895679725
C            5.07795648110267       -2.43197348749212        2.33465554040805
C            6.36970222198990       -2.67832390699936        1.87447665472236
C            6.92398327297280       -1.91542409961928        0.86147864916979
C            6.15999857011481       -0.90456504222521        0.29779379551506
C            6.40584852003300        0.06940753006380       -0.73280568534153
C            7.48655924469142        0.33783579847507       -1.55943427885007
C            7.37490411970092        1.36104069809674       -2.48478452977443
C            6.19939842004580        2.09980590822751       -2.60074225243083
C            5.10816010610696        1.84967375052203       -1.78976253144185
C            5.22299455484902        0.84061397272745       -0.84150139909874
C            2.82613176779224        2.27769299414462        0.42327049768020
H            1.38206300132329        3.82586313768056        0.71903426006033
H           -0.54038123407546        2.35293990109168        0.65045181552174
H            0.54227463891640       -2.25544992443132        0.37785138366211
H           -3.49130518076508       -2.83916573277219        0.53714914350906
H           -3.32505231519733        1.42373598867030        1.99708329595851
H           -4.78912851374584        3.17313393721395        2.94166726766770
H           -7.10226767340660        3.43036692542396        2.17508229005589
H           -8.04093095209154        1.92172029818910        0.45573341425951
H           -8.44527836853595       -0.06124520289221       -1.42929663266828
H           -8.18848571646333       -1.94834148745007       -3.00576907362856
H           -6.04275994078219       -3.10806926624826       -3.23631090137279
H           -4.08292602805735       -2.43377796976317       -1.89172418658515
H           -2.06060850614532        1.15899466998432       -0.07332035985169
H            2.09347520997031       -0.99903747108161        0.00181378956192
H            3.30301055605902       -1.23243853815074        2.16012801580681
H            4.67817664152823       -3.03491590949997        3.13663276510651
H            6.94762593731622       -3.47253459677261        2.32340632801989
H            7.93079075788028       -2.09917909589455        0.51792853701579
H            8.39304012712480       -0.24358260128804       -1.48387431157563
H            8.20631425617435        1.58647329708597       -3.13612659346384
H            6.13680026466830        2.88134019203113       -3.34359181368828
H            4.19293414215100        2.41196749756315       -1.89498097045969
H            3.68278921812290        2.92879788139442        0.48946497318173
