61
 energy: -95.449137859227 gnorm: 0.000067002968 xtb: 6.7.1 (edcfbbe)
C            1.55914882758703       -1.93370725200687       -2.04562871834768
C            0.46076610171640       -1.31865049354466       -1.50426743903151
C            0.58445023441228       -0.29093032401644       -0.51747889938525
C           -0.54325911888946        0.31193805988493        0.09155189015228
C           -0.43209145503956        1.48127782645315        0.92774683861764
N           -1.43755471114116        2.02953943144031        1.52932177396534
C           -2.68053829738240        1.59756787488765        1.38220337390774
C           -2.95026327718348        0.55764269972220        0.44011373604767
N           -4.26897227664072        0.16265197972221        0.23778792969517
C           -5.33094820620240        1.01450099866322        0.00315093697755
C           -5.33271475894420        2.39266042001376       -0.16322087968433
C           -6.54528916507484        3.00908113156575       -0.41607166936147
C           -7.72491898458878        2.27550874753759       -0.51518847185382
C           -7.72461444475513        0.89836309468996       -0.37303420615565
C           -6.52171989925844        0.25908090521463       -0.11432704667512
C           -6.14908841332037       -1.11942251158627        0.07090346549768
C           -6.86220002787488       -2.30852009904471        0.07383667317473
C           -6.17941730075713       -3.48932010645827        0.30990797295949
C           -4.80859204822320       -3.48964450676513        0.55457116924483
C           -4.07583202319049       -2.31588827328281        0.55432623880765
C           -4.75080755035529       -1.13163346657625        0.29183305731899
C           -1.89652706083602       -0.06960733591265       -0.16941367470331
C            1.90971689699011        0.04476023456044       -0.13749544167763
C            3.00342094856498       -0.57476330379401       -0.69560429692626
N            4.29807570943761       -0.18780414279758       -0.30969067860317
C            4.77981624303192        1.10304733418963       -0.29381520240276
C            4.15267095903014        2.28430106850013       -0.66952913834354
C            4.87787202884436        3.45768388462897       -0.57781870426327
C            6.19769943830195        3.46274792476590       -0.13166195974450
C            6.83624591622412        2.28668241860784        0.21973955935259
C            6.12914666395403        1.09633415308270        0.13569691820325
C            6.46578276601562       -0.27891116655648        0.39186461887746
C            7.61364936996455       -0.91655375754756        0.83834062726124
C            7.58884412438933       -2.29103777621941        0.99637714122712
C            6.43487403180873       -3.02421630299089        0.72856922966567
C            5.27794635293074       -2.41101499347141        0.28492091771683
C            5.30404828183835       -1.03439563243262        0.10057303546535
C            2.85085726878371       -1.57809890626939       -1.66852442589489
H            1.42339755840569       -2.70407497508186       -2.79225987447901
H           -0.51853417579022       -1.62930059696856       -1.83144839018231
H            0.50914913603293        2.00172223853823        1.02514664077542
H           -3.44305853168929        1.99784824082556        2.02835920866387
H           -4.41834995812422        2.96297923262143       -0.10263558897151
H           -6.57525746154585        4.08083647520416       -0.54409496120743
H           -8.65211717630287        2.79169654143643       -0.71491951243114
H           -8.63894186724761        0.33209053043769       -0.46384343373070
H           -7.92733274074347       -2.30976249478343       -0.10045812982644
H           -6.71682387373476       -4.42588077478943        0.31474874401617
H           -4.30608902974171       -4.42455660875082        0.75324559188714
H           -3.01729739172993       -2.32212288731961        0.76488822635508
H           -2.10880802915222       -0.84698423507057       -0.88620440077745
H            2.07992262375121        0.77776453925033        0.63551213582346
H            3.13606285277602        2.28380228474745       -1.03243048432637
H            4.41176104069667        4.38993628716449       -0.86113269055286
H            6.73046139701977        4.40012045200229       -0.07011958038196
H            7.86468950192178        2.29211852582628        0.54798500806715
H            8.50529650743933       -0.34982589811832        1.06054042277880
H            8.47363947601314       -2.80585962709626        1.34060211803920
H            6.44223159095221       -4.09424445743182        0.87564866604827
H            4.38122877360696       -2.98094312073837        0.09505185779085
H            3.71598575386199       -2.02242747838359       -2.13346988739813
