61
 energy: -95.547890520733 gnorm: 0.000031535387 xtb: 6.7.1 (edcfbbe)
C            1.58488571071899        2.70726405775076        1.20311675196975
C            0.47569742170559        1.88112939765196        1.20450749585497
C            0.59429526091427        0.54272896322621        0.83373144600123
C           -0.57736992559043       -0.34359172766121        0.84348067050945
C           -0.48320918143401       -1.67089096751983        1.26942129932028
N           -1.50492143678109       -2.50649156644205        1.29258628443973
C           -2.68994529504325       -2.07524062124799        0.90501942672083
C           -2.91452200709987       -0.76839760702257        0.46663863241916
N           -4.18539841863005       -0.34666941670712        0.06883024780272
C           -4.82166089858275        0.80644387907823        0.49368989499811
C           -4.40745301320526        1.75701339565528        1.41549611357884
C           -5.25947453142370        2.81195038508897        1.68359836463873
C           -6.50072350825065        2.92001888631412        1.06029133422856
C           -6.92966931634755        1.96277130396002        0.16202544458556
C           -6.09011402565904        0.89357866391197       -0.12351597507785
C           -6.21562812878897       -0.26362388158485       -0.96649347881921
C           -7.20949149469839       -0.71444486980314       -1.82583676003196
C           -6.99859147359896       -1.88683443451319       -2.52426059496534
C           -5.80926207634883       -2.59917682016919       -2.38526895698645
C           -4.80563295600399       -2.17010306905881       -1.53691825710242
C           -5.02236071344576       -1.00587132547208       -0.81412949914167
C           -1.82984336788553        0.10379951638815        0.43335820060227
C            1.84027005138193        0.05379468581948        0.45425084436703
C            2.95497075827612        0.88440625166453        0.45559893223276
N            4.20558591214081        0.37623711013234        0.07543081066936
C            4.79390791782512       -0.77188111708953        0.56946534747548
C            4.34632336424459       -1.64174486666587        1.55392815014473
C            5.15101470987019       -2.71638715737467        1.88165198487345
C            6.37940600191592       -2.92227743507435        1.25661458352532
C            6.84232010752796       -2.04584904628186        0.29524810669280
C            6.05005807001425       -0.95889038348553       -0.05240254172971
C            6.21718290164100        0.13307459623316       -0.97085243065293
C            7.21995788506956        0.48437693422549       -1.86582312504077
C            7.05206326668821        1.61718152423335       -2.63734162306400
C            5.89564826979432        2.38812249992754       -2.53536226199806
C            4.88430920839530        2.05887222490249       -1.65288537921910
C            5.05757772933209        0.93463080341921       -0.85766843547071
C            2.82517471658151        2.21769937037404        0.83602291836052
H            1.48499600516387        3.74024914791116        1.50150494764463
H           -0.48188929127523        2.27039490058117        1.51483791691627
H            0.45419692461334       -2.07831220060148        1.62270762072356
H           -3.49788682255952       -2.79258650754225        0.95702193685474
H           -3.45805122344129        1.67107255370321        1.92215071140255
H           -4.95772575216660        3.56633528940257        2.39544516332996
H           -7.13733519308831        3.76056299095297        1.29400575277184
H           -7.89916949244389        2.03687538668131       -0.30720484193931
H           -8.12430246224485       -0.15366606635877       -1.94523976245182
H           -7.75993086487807       -2.25634486023966       -3.19528590277440
H           -5.66558484558023       -3.50527278211691       -2.95548104075468
H           -3.88173801593010       -2.72203055544822       -1.44986878438256
H           -1.95927533648195        1.10871939882067        0.05931687481539
H            1.94271914931206       -0.96950659946314        0.12573872682856
H            3.40578243848267       -1.47990121708259        2.05867123810360
H            4.82202809428028       -3.41028325178236        2.64160099554267
H            6.97856736682302       -3.77577835237857        1.53837950230726
H            7.80187264757331       -2.19646029766204       -0.17662058578580
H            8.10939134844131       -0.12130442326665       -1.95612217011330
H            7.82142582282603        1.90900499315473       -3.33725369970072
H            5.78573850892490        3.26101350745416       -3.16249177765345
H            3.98508816883212        2.65342053697849       -1.59453436062530
H            3.69586617309433        2.85529445197839        0.85496080891192
