  86
       -128.68537587
 C        -12.0999185475        0.0168406493        0.1673661813
 C        -11.3696208162        0.4643742034        1.2554296331
 C         -9.9879857941        0.4615093563        1.2142788627
 C         -9.3125109322        0.0062315137        0.0842372273
 C         -7.8430516135        0.0005096813        0.0422546933
 C         -7.1489440510       -1.0736468964       -0.5104320536
 C         -5.7683411616       -1.0835255673       -0.5394526471
 C         -5.0410183781       -0.0139562841       -0.0258568086
 C         -3.5638396690       -0.0214772190       -0.0507051534
 C         -2.8569211798       -0.9148429672        0.7676164570
 C         -3.5178883720       -1.8169711833        1.6424035566
 C         -2.8167482221       -2.6778375258        2.4293053925
 C         -1.4075785855       -2.6863604217        2.3992609508
 C         -0.7345349154       -1.8245838866        1.5901574676
 C         -1.4277293293       -0.9120749339        0.7526777144
 C         -0.7409453971       -0.0109954950       -0.0709481701
 C          0.7410971330        0.0041805780       -0.0665156515
 C          1.4230663174        0.8977659259        0.7691398308
 C          0.7255506134        1.8005536961        1.6135308163
 C          1.3944906864        2.6813212660        2.4054311736
 C          2.8035526485        2.7173661711        2.3944596988
 C          3.5088753796        1.8615479567        1.6057952418
 C          2.8521300695        0.9128309818        0.7784251346
 C          3.5638852987        0.0174797607       -0.0334286981
 C          5.0409716851        0.0168045357       -0.0056590662
 C          5.7739209034        0.4508392708       -1.1061477215
 C          7.1545343338        0.4529121220       -1.0751210080
 C          7.8427880313        0.0099120265        0.0521601322
 C          9.3126016819        0.0041436565        0.0828052570
 C         10.0060707418       -1.0724286622        0.6310086857
 C         11.3881755478       -1.0793825616        0.6575988310
 C         12.1001525006       -0.0089137689        0.1429054656
 C         11.4208970798        1.0680740277       -0.4016109683
 C         10.0389697079        1.0740582858       -0.4347340423
 C          7.1064110428       -0.4285151869        1.1505841753
 C          5.7259818862       -0.4195769821        1.1246374608
 C          2.8799957531       -0.8802654495       -0.8662219819
 C          3.5641720385       -1.8217472476       -1.6795259151
 C          2.8849908506       -2.6813880750       -2.4867682859
 C          1.4762408798       -2.6577853550       -2.5308890259
 C          0.7811623820       -1.7854783063       -1.7522921465
 C          1.4509207183       -0.8783467754       -0.8902731866
 C         -1.4459495725        0.8788101301       -0.8910727575
 C         -0.7716500882        1.7929125253       -1.7420308284
 C         -1.4629501823        2.6444577585       -2.5466450789
 C         -2.8723744568        2.6252698242       -2.5562313802
 C         -3.5556924906        1.7641977067       -1.7539797054
 C         -2.8751511773        0.8708906099       -0.8852860564
 C         -5.7318479785        1.0645904576        0.5186890238
 C         -7.1120108866        1.0691149248        0.5567724928
 C        -10.0573266722       -0.4439188767       -1.0033700723
 C        -11.4390238569       -0.4360402950       -0.9620865436
 H        -13.1794569244        0.0209579489        0.1995541233
 H        -11.8796520828        0.8147736541        2.1412130889
 H         -9.4237857565        0.7954383533        2.0731994910
 H         -7.6978216454       -1.9186192364       -0.9005264975
 H         -5.2413963214       -1.9250145015       -0.9667253148
 H         -4.5972561719       -1.8054142260        1.6761944707
 H         -3.3354002905       -3.3592231082        3.0878853917
 H         -0.8688835587       -3.3778538560        3.0304270306
 H          0.3454855244       -1.8189394277        1.5714956690
 H         -0.3543478973        1.7749178681        1.6107887212
 H          0.8526427318        3.3641381301        3.0433224862
 H          3.3186925603        3.4340081254        3.0174041715
 H          4.5882589305        1.8962622171        1.5942692224
 H          5.2512512995        0.7933031143       -1.9881217742
 H          7.7086654545        0.7816652259       -1.9424426452
 H          9.4559754908       -1.9181159075        1.0178677461
 H         11.9128730085       -1.9246399500        1.0790893622
 H         13.1799465750       -0.0139155731        0.1658296054
 H         11.9713313968        1.9075536750       -0.8013789507
 H          9.5140832335        1.9239839565       -0.8467709592
 H          7.6227341609       -0.7589694395        2.0402871950
 H          5.1654834766       -0.7581674580        1.9845707630
 H          4.6432426273       -1.8471423417       -1.6427896677
 H          3.4208716222       -3.3917840119       -3.0993013170
 H          0.9557392143       -3.3434637494       -3.1833116875
 H         -0.2987276427       -1.7681793525       -1.7749308368
 H          0.3085964701        1.7949679817       -1.7386074442
 H         -0.9388013907        3.3361408333       -3.1897412243
 H         -3.4055395931        3.2987011131       -3.2113958599
 H         -4.6353838409        1.7439451472       -1.7718002988
 H         -5.1760081401        1.9006893828        0.9191377106
 H         -7.6325042099        1.9201345746        0.9717952973
 H         -9.5477881002       -0.7827455764       -1.8939112199
 H        -12.0037349064       -0.7827167474       -1.8155524395
