86
 energy: -128.685466520543 gnorm: 0.000050568938 xtb: 6.7.1 (edcfbbe)
C          -12.10170708235509        0.00209741649322       -0.00173482092266
C          -11.40632644009397        0.42678645185365        1.11798109616961
C          -10.02401436760055        0.42884880962151        1.11880062994303
C           -9.31319955547549        0.00075148140283       -0.00005568840352
C           -7.84311733689669        0.00007582546886        0.00073735506309
C           -7.13030465529194        1.06006538146308        0.55694453345616
C           -5.74948643479321        1.05991414281051        0.55750736365009
C           -5.04087964347508       -0.00081468577873        0.00145262056246
C           -3.56323374737666       -0.00087776094688        0.00111293047704
C           -2.86623185626721        0.16244610225305       -1.20473366427189
C           -3.53783521432018        0.36006600302661       -2.43990498362055
C           -2.84600438738150        0.51464643487500       -3.60151537005012
C           -1.43664638285612        0.48607202258346       -3.60273638599465
C           -0.75376193653363        0.31625795451155       -2.43861843754565
C           -1.43709096800211        0.15577545393702       -1.20504023942973
C           -0.74109038300727       -0.00055226310833        0.00009100336877
C            0.74109038662115       -0.00036602280414       -0.00042622740598
C            1.43674287500738       -1.20565045770850       -0.15711976596694
C            0.75307404398217       -2.43906005066165       -0.31744220950483
C            1.43563403868413       -3.60332118248074       -0.48758684461546
C            2.84498367889573       -3.60242325350739       -0.51671685690461
C            3.53713903572844       -2.44099023990466       -0.36225232125368
C            2.86588319223359       -1.20569420994235       -0.16423821342756
C            3.56323351223390       -0.00006090323220       -0.00089995146555
C            5.04087902430436       -0.00001637447484       -0.00067691168602
C            5.74943472997071       -0.55625131549798        1.05998994054656
C            7.13025044714031       -0.55598995633620        1.06013130822720
C            7.84311656043056       -0.00002751860223        0.00004213189818
C            9.31319766347664        0.00011114081913        0.00042648278402
C           10.02348164995888        1.11952933005793       -0.42706851663818
C           11.40578780138570        1.11974980828260       -0.42384791254341
C           12.10170719616036        0.00052688380176        0.00128088465693
C           11.40592891372485       -1.11892087389901        0.42600755330931
C           10.02361456449292       -1.11907264947165        0.42836112520302
C            7.13076251197938        0.55588142896685       -1.06042059418958
C            5.74994384409817        0.55613278637296       -1.06104283723744
C            2.86568683187129        1.20546684355680        0.16240258429519
C            3.53672014013157        2.44097393647976        0.35986543051423
C            2.84434816656125        3.60228390139099        0.51429811485045
C            1.43498624867948        3.60283446790852        0.48578681224818
C            0.75263867891730        2.43837083797590        0.31618158228205
C            1.43654054100162        1.20509708693760        0.15579581567521
C           -1.43619205393057       -0.15698947857590        1.20572721896761
C           -0.75194800206247       -0.31709107645662        2.43884819031154
C           -1.43397060208832       -0.48682645689445        3.60348407781553
C           -2.84332558644630       -0.51581864479320        3.60326966344663
C           -3.53602314262919       -0.36165917509760        2.44211702412522
C           -2.86533824534639       -0.16401284957480        1.20645175599325
C           -5.74989316751207       -1.06120903962073       -0.55472926485157
C           -7.13070806507578       -1.06049361935575       -0.55488397687074
C          -10.02308650485775       -0.42661276342737       -1.11978741837962
C          -11.40539345090982       -0.42323385185729       -1.12062721923020
H          -13.18174012386540        0.00258906578689       -0.00237244639672
H          -11.94433284499861        0.75613105182198        1.99522277083806
H           -9.48719372341079        0.74567807912889        2.00139111316285
H           -7.66512749193657        1.90114555023513        0.97390037227093
H           -5.20739546936495        1.89204294383644        0.98414056298555
H           -4.61740245843111        0.39127984288465       -2.44036483208258
H           -3.37203028982784        0.66431202987467       -4.53313795776617
H           -0.90585291335462        0.60712713267880       -4.53565664467062
H            0.32638649707109        0.30280921281531       -2.43172450908293
H           -0.32706854870022       -2.43191534640254       -0.30360633475904
H            0.90457984511913       -4.53611333748343       -0.60848335922979
H            3.37073042514359       -4.53415171192218       -0.66670849466007
H            4.61669589589687       -2.44166199045346       -0.39390006011937
H            5.20728974511241       -0.98284804478847        1.89210824594891
H            7.66502802086771       -0.97314417637974        1.90113511081395
H            9.48623616802619        2.00175135702215       -0.74424223552848
H           11.94338274467973        1.99742509932540       -0.75267236819952
H           13.18174122552742        0.00073166999261        0.00158952727706
H           11.94360606202957       -1.99642739915657        0.75520631444356
H            9.48646678830922       -2.00143218572542        0.74525711697691
H            7.66596188952083        0.97296290450177       -1.90119814416462
H            5.20821377802581        0.98267311243996       -1.89345298258176
H            4.61628989710070        2.44193211967553        0.39102443532297
H            3.36993228198633        4.53418717580123        0.66378135520953
H            0.90375543387546        4.53552439037484        0.60670141121771
H           -0.32750789049188        2.43097042420559        0.30276924236106
H            0.32819309035408       -0.30335556713068        2.43118727367512
H           -0.90247934515448       -0.60748564991326        4.53605924764555
H           -3.36863313708994       -0.66545325695615        4.53530464743036
H           -4.61558437208880       -0.39320747901915        2.44330165853836
H           -5.20810919285215       -1.89364953463014       -0.98113446939149
H           -7.66585944332559       -1.90122739050569       -0.97212605122129
H           -9.48551042410360       -0.74389352599142       -2.00175720636677
H          -11.94265818473146       -0.75203282478409       -1.99852790732806
