  56
  -95.4326696482000       0.583737304844719      !
 O          3.4318655942        3.3053246149       -0.0319649486
 S          3.1906250293        2.1030506718       -0.7920689253
 O          3.4758841457        2.1731773850       -2.2058389774
 C          4.1140585200        0.7522172637       -0.0866266335
 C          5.4861585187        0.9113959043       -0.0162908196
 C          6.2882323544       -0.1036677400        0.4660559387
 C          5.6893010185       -1.2893372941        0.8676386325
 C          4.3216949085       -1.4499672804        0.8026505827
 C          3.4896711552       -0.4222153821        0.3285323171
 N          2.1184422049       -0.6114441291        0.2963065102
 C          1.6183669648       -1.8947264614        0.6942302816
 C          1.3669762993       -2.8595603601       -0.2715006866
 C          0.8620678614       -4.0916999433        0.1067733956
 C          0.6119193190       -4.3595051894        1.4423831497
 C          0.8666341423       -3.3957297241        2.4045882496
 C          1.3683794672       -2.1601100011        2.0342788451
 C          1.1778335373        0.3302181763       -0.0769044789
 C         -0.1845143715        0.0238430299        0.0459533550
 C         -1.1680888562        0.9188573702       -0.3459709756
 N         -2.5183857961        0.5384677818       -0.2451656864
 C         -2.9918649100       -0.5896720605       -0.9253429198
 C         -2.1892836663       -1.3433057426       -1.7728452697
 C         -2.6938669919       -2.4547690324       -2.4306156298
 C         -4.0126094719       -2.8258386367       -2.2645306166
 C         -4.8373117205       -2.0634045719       -1.4515162805
 C         -4.3390372899       -0.9528574648       -0.7951977800
 O         -5.2278746383       -0.2317646934       -0.0397063723
 C         -4.7470346628        0.8637047262        0.6324542353
 C         -5.6480789616        1.5607118001        1.4160531749
 C         -5.2311415786        2.6578315393        2.1545003389
 C         -3.9042722751        3.0360416145        2.1186402553
 C         -2.9973783237        2.3410588435        1.3327205097
 C         -3.4063922350        1.2629297766        0.5582778467
 C         -0.8187912625        2.1754115968       -0.8437743074
 C          0.5179877944        2.4981171987       -0.9382430706
 C          1.4990569308        1.5940800580       -0.5706724898
 H          5.8959881528        1.8507439957       -0.3528549638
 H          7.3575308578        0.0203342084        0.5220759938
 H          6.2957733022       -2.1020984734        1.2378350505
 H          3.8854744125       -2.3838457074        1.1204867035
 H          1.5664143020       -2.6367177372       -1.3091029219
 H          0.6632891834       -4.8416663048       -0.6434130649
 H          0.2172261289       -5.3206093187        1.7343977722
 H          0.6714214870       -3.6032327519        3.4456415336
 H          1.5671492318       -1.3974823296        2.7727429100
 H         -0.4923142260       -0.9284268890        0.4474219706
 H         -1.1633029308       -1.0528057648       -1.9333890299
 H         -2.0435377166       -3.0220149725       -3.0784593108
 H         -4.4090329329       -3.6923048795       -2.7696114852
 H         -5.8783081411       -2.3096589424       -1.3168470454
 H         -6.6716631412        1.2230332397        1.4387845882
 H         -5.9410818063        3.1977625497        2.7605561750
 H         -3.5586052335        3.8738982749        2.7040381528
 H         -1.9605890599        2.6378665989        1.3276288823
 H         -1.5835580142        2.8685812992       -1.1551309328
 H          0.8396832065        3.4557317378       -1.3154920869
  56
  -95.4323501092000       0.416262695155281      !
 O          3.4659195356        3.3421955995       -0.5014555308
 S          3.1959166629        2.0001784579       -0.9527428871
 O          3.4703621933        1.7216069089       -2.3439647096
 C          4.0917725788        0.8192255742        0.0343256599
 C          5.4307590415        1.0695217282        0.2709423555
 C          6.2151170623        0.1338196881        0.9163300342
 C          5.6374410422       -1.0687216876        1.2985394224
 C          4.2997361060       -1.3171186775        1.0735668072
 C          3.4807558802       -0.3636390754        0.4484133979
 N          2.1290454249       -0.6142339724        0.2802164231
 C          1.6424341474       -1.9291471987        0.5740885953
 C          1.4225171217       -2.8120192472       -0.4736052046
 C          0.9174850232       -4.0740676444       -0.2123771529
 C          0.6372415737       -4.4538873732        1.0894634102
 C          0.8616239713       -3.5724300160        2.1345515867
 C          1.3610303450       -2.3069040802        1.8811177086
 C          1.1822395176        0.3178626506       -0.1042190090
 C         -0.1775369765        0.0180657858        0.0495057542
 C         -1.1641582316        0.9138733773       -0.3340916226
 N         -2.5140646418        0.5437846645       -0.2006735663
 C         -3.0105127154       -0.5906542361       -0.8541266759
 C         -2.2294072273       -1.3698705600       -1.6986395349
 C         -2.7576333191       -2.4857068085       -2.3300837995
 C         -4.0788329029       -2.8360970441       -2.1404129716
 C         -4.8821288158       -2.0489459856       -1.3296047573
 C         -4.3602946703       -0.9341068971       -0.6992145046
 O         -5.2297993451       -0.1888969558        0.0556008321
 C         -4.7266972028        0.9123799776        0.7010306044
 C         -5.6084662293        1.6349385734        1.4835853432
 C         -5.1678830392        2.7389200848        2.1974999803
 C         -3.8365761669        3.0982969089        2.1389229016
 C         -2.9491024691        2.3773715430        1.3542948316
 C         -3.3822415778        1.2926634542        0.6023907134
 C         -0.8176899938        2.1650058971       -0.8480115472
 C          0.5183515263        2.4800645144       -0.9764912475
 C          1.5007500874        1.5724010172       -0.6233004033
 H          5.8306696982        2.0108782619       -0.0718650057
 H          7.2588538796        0.3277107910        1.1037955413
 H          6.2368111881       -1.8248398260        1.7828298104
 H          3.8793974949       -2.2614021563        1.3818624321
 H          1.6447159127       -2.5004556269       -1.4834158081
 H          0.7426697071       -4.7595664714       -1.0271316018
 H          0.2430258676       -5.4379374915        1.2910618280
 H          0.6432128893       -3.8675442413        3.1497522496
 H          1.5321038689       -1.6070837767        2.6860084583
 H         -0.4805400095       -0.9270989627        0.4711014865
 H         -1.2018488107       -1.0969203338       -1.8781892411
 H         -2.1237050276       -3.0725109729       -2.9766073268
 H         -4.4939203541       -3.7047624273       -2.6262004555
 H         -5.9245509081       -2.2782294538       -1.1772455289
 H         -6.6363340665        1.3119881724        1.5242795030
 H         -5.8633379288        3.3002658960        2.8008597580
 H         -3.4722809384        3.9416568899        2.7050589454
 H         -1.9082549188        2.6588847768        1.3328497820
 H         -1.5850484384        2.8593235046       -1.1504796271
 H          0.8362689737        3.4315626703       -1.3719289278
