  56
        -95.74884334
 O          3.4742740925        3.3213360153       -0.5766055021
 S          3.2004134050        1.9705218217       -0.9983556361
 O          3.4730648809        1.6609860162       -2.3833716556
 C          4.0939285707        0.8089970448        0.0135745460
 C          5.4337463045        1.0608603971        0.2437346310
 C          6.2161448970        0.1373774660        0.9088006329
 C          5.6356146408       -1.0550259562        1.3175280008
 C          4.2970923038       -1.3047403065        1.0989669451
 C          3.4801336519       -0.3629520760        0.4537675674
 N          2.1276435007       -0.6135900275        0.2920264539
 C          1.6378158886       -1.9205025990        0.6148214705
 C          1.4147870565       -2.8254071722       -0.4132323724
 C          0.9066521494       -4.0801302841       -0.1242124749
 C          0.6264105810       -4.4307591501        1.1857922315
 C          0.8538990721       -3.5273374553        2.2112687341
 C          1.3564233396       -2.2689530229        1.9299693709
 C          1.1829876959        0.3124012506       -0.1119558543
 C         -0.1774511652        0.0196076295        0.0492259604
 C         -1.1620165441        0.9094417586       -0.3530996873
 N         -2.5127849279        0.5459048245       -0.2106952619
 C         -3.0127010390       -0.6011888498       -0.8389255219
 C         -2.2342843392       -1.4006732943       -1.6668131329
 C         -2.7659128164       -2.5286056104       -2.2734226031
 C         -4.0878798964       -2.8712989433       -2.0752282557
 C         -4.8884919317       -2.0645574881       -1.2811944615
 C         -4.3632587938       -0.9376282155       -0.6756125061
 O         -5.2302319678       -0.1738631913        0.0634023326
 C         -4.7237547747        0.9398841805        0.6843289669
 C         -5.6030303545        1.6816399366        1.4515788041
 C         -5.1590124398        2.7997479023        2.1409593250
 C         -3.8268143522        3.1542549667        2.0736246328
 C         -2.9418314311        2.4140718509        1.3042623383
 C         -3.3783838735        1.3143854397        0.5764761812
 C         -0.8126666833        2.1481643305       -0.8944014287
 C          0.5240965529        2.4568285292       -1.0306599043
 C          1.5043849641        1.5544900540       -0.6584722683
 H          5.8358581256        1.9934685525       -0.1197838081
 H          7.2605288206        0.3325563535        1.0912589621
 H          6.2333730830       -1.8019904844        1.8177531795
 H          3.8745185549       -2.2409727412        1.4280600681
 H          1.6370287384       -2.5365030734       -1.4297483358
 H          0.7294197322       -4.7827532934       -0.9237144609
 H          0.2297739444       -5.4091419086        1.4090614338
 H          0.6354922754       -3.7996886735        3.2328124080
 H          1.5299439350       -1.5522170135        2.7193006210
 H         -0.4826054568       -0.9153466718        0.4915284747
 H         -1.2061523563       -1.1344072841       -1.8529938519
 H         -2.1340176031       -3.1310232343       -2.9074559802
 H         -4.5056116277       -3.7492447623       -2.5416807819
 H         -5.9313939912       -2.2877204557       -1.1231386291
 H         -6.6317088332        1.3623615798        1.5000265624
 H         -5.8525336803        3.3759350437        2.7324373985
 H         -3.4598794814        4.0087857078        2.6209938905
 H         -1.9002670654        2.6923081759        1.2759527417
 H         -1.5784355994        2.8377468213       -1.2113822125
 H          0.8442017851        3.3986452876       -1.4469591199
