  57
        -95.34658020
 O          3.4353754023       -2.5487607155       -0.1471696454
 C          3.9760783631       -1.4188823437       -0.0669788105
 C          5.4030142152       -1.2964566322        0.1847865989
 C          6.1027201425       -2.4772752933        0.5197130277
 C          7.4316509901       -2.4356516427        0.8589431122
 C          8.1278003451       -1.2279939275        0.8793352252
 C          7.4691077344       -0.0625887466        0.5257137993
 C          6.1351503809       -0.1097677998        0.1780041657
 S          5.3964104440        1.3922336625       -0.4362826537
 O          5.8418030002        2.5217044573        0.3384545583
 O          5.6166625468        1.4540645824       -1.8594199080
 C          3.6675607843        1.0990598099       -0.1428626638
 C          2.8317411204        2.1939313457       -0.0572974011
 C          1.4629582871        2.0197844683       -0.0052130271
 C          0.9236734097        0.7196074262       -0.0608959345
 C         -0.5236264828        0.5061875117       -0.0298298186
 C         -1.3536222690        1.3014494736        0.7655600537
 C         -2.7160039164        1.1074837154        0.7885542861
 C         -3.3016176765        0.1052874550        0.0078779110
 N         -4.6805323965       -0.0883548276        0.0223198845
 C         -5.5412418091        1.0045548055        0.1678667367
 C         -5.2438959273        2.2237573851       -0.4434548063
 C         -6.0972347172        3.2991689384       -0.2948635236
 C         -7.2554443091        3.1773788102        0.4566455234
 C         -7.5563232711        1.9676846277        1.0628217490
 C         -6.7085556560        0.8866921229        0.9243141444
 C         -5.2113212464       -1.3763855660       -0.1011943746
 C         -4.5715843291       -2.4646106336        0.4950594756
 C         -5.1029081909       -3.7330089147        0.3712259719
 C         -6.2750932052       -3.9364843339       -0.3401968971
 C         -6.9144542313       -2.8587004963       -0.9325803001
 C         -6.3901140438       -1.5863789139       -0.8189870982
 C         -2.4764695013       -0.6976265710       -0.7871682128
 C         -1.1148426466       -0.5011416902       -0.7989596375
 C          1.7748544733       -0.3669338301       -0.1220269442
 C          3.1753673169       -0.2115380048       -0.1253120300
 H          5.5435962767       -3.4011670184        0.5082545824
 H          7.9421378832       -3.3518611233        1.1182217482
 H          9.1708681693       -1.1990127229        1.1525641295
 H          7.9708562268        0.8922273356        0.5047385568
 H          3.2781703305        3.1760740022       -0.0583561156
 H          0.8098415039        2.8771735691        0.0245063043
 H         -0.9171247912        2.0608974482        1.3960186244
 H         -3.3401361891        1.7164731247        1.4259231064
 H         -4.3503292071        2.3138888325       -1.0429558377
 H         -5.8606619333        4.2359399678       -0.7761751456
 H         -7.9200791939        4.0198667033        0.5691118853
 H         -8.4534596556        1.8677185684        1.6547759128
 H         -6.9349738114       -0.0513753007        1.4091357128
 H         -3.6678719049       -2.3039276744        1.0639074915
 H         -4.6030586543       -4.5665431974        0.8407875579
 H         -6.6880140652       -4.9290196624       -0.4323396520
 H         -7.8239114348       -3.0109133032       -1.4939319377
 H         -6.8803532691       -0.7491470417       -1.2934416334
 H         -2.9200249225       -1.4598199704       -1.4105683378
 H         -0.4956293830       -1.1111689011       -1.4380107222
 H          1.3974007440       -1.3790870900       -0.1209532098
