57
 energy: -95.422250989326 gnorm: 0.000106835716 xtb: 6.7.1 (edcfbbe)
O            3.56974256298724       -2.46449782634379       -0.66625503264659
C            4.02349249347700       -1.39913436243751       -0.29993066026011
C            5.41712653988616       -1.29881020933581        0.20560231449689
C            6.03125128227025       -2.46813833208336        0.66083433514684
C            7.31652759580024       -2.43638202876637        1.16779064865001
C            8.01423500918987       -1.23886435738037        1.22735481861964
C            7.42174112361933       -0.07419450724703        0.76491099256108
C            6.13597372714386       -0.11106607833582        0.26454625613393
S            5.43381813309798        1.38334968234006       -0.42627117777049
O            5.83966942321909        2.51565761328058        0.36105785922469
O            5.74082565913645        1.40550270031400       -1.83169704371043
C            3.67958918555404        1.11377544906954       -0.23857425343791
C            2.83336427995642        2.20273238053032       -0.16985259604274
C            1.46478406032258        2.01392310289727       -0.10939314376650
C            0.92346004873174        0.72573139392346       -0.13524002274865
C           -0.52646751771608        0.51652894760521       -0.08931859913085
C           -1.34554848258788        1.32758317240280        0.69690404266042
C           -2.70730031005924        1.12699500151701        0.74746925949738
C           -3.30494087756436        0.11193260828656       -0.00442728516151
N           -4.68031600026008       -0.08929799688365        0.03974151490246
C           -5.55036330590121        0.99789817282724        0.20663041268695
C           -5.29591836275424        2.21216063397595       -0.42934876986366
C           -6.15890537742886        3.27791360793805       -0.26249142805590
C           -7.28817941307635        3.14903967294825        0.52938299689126
C           -7.54801818927758        1.94252155816259        1.15844333309928
C           -6.68676530397911        0.87344342840979        1.00437286956644
C           -5.21240647229032       -1.38128851209790       -0.08175210484608
C           -4.57844890824030       -2.46751173577063        0.51983674389120
C           -5.10993271084925       -3.73675375507972        0.39789700348179
C           -6.28072827035865       -3.94183825878387       -0.31352697785683
C           -6.91738776753505       -2.86448826122289       -0.90746107809565
C           -6.38910535176978       -1.59263951504668       -0.79855666703941
C           -2.48878886616101       -0.69671723224334       -0.80018543210401
C           -1.12604215675612       -0.50090583481565       -0.83300765931239
C            1.79366232780230       -0.35920204606262       -0.20819201378704
C            3.17488254039970       -0.18199848091851       -0.25514157707493
H            5.47457408354253       -3.39186416891461        0.60631289480785
H            7.77828535046988       -3.34774233732137        1.51670816266390
H            9.01718967822447       -1.21333693483163        1.62529136059775
H            7.93602151872309        0.87379144848317        0.78725560382588
H            3.26840233638159        3.18991935910511       -0.16479661778624
H            0.80760230196688        2.86921532251622       -0.06942301895159
H           -0.90404283409671        2.10154181372570        1.30699327214706
H           -3.32194899547382        1.75047621212744        1.37971486870408
H           -4.42232888388645        2.31036645454045       -1.05715221574470
H           -5.95276568498130        4.21263896671732       -0.76272643213851
H           -7.96199233880258        3.98287935615548        0.65419770326331
H           -8.42413375383070        1.83451730647954        1.78061994734530
H           -6.88637036075586       -0.06456861517518        1.50146424718568
H           -3.67187986976484       -2.30768801796969        1.08506789716093
H           -4.61048315617434       -4.57005973540271        0.86960702104671
H           -6.69454711658630       -4.93455751002260       -0.40372255793053
H           -7.82851197320446       -3.01582952324211       -1.46716412923374
H           -6.88231400124294       -0.75466757807887       -1.26901745776413
H           -2.93694277079048       -1.47492029696939       -1.39983109620377
H           -0.51832057904561       -1.12210303522294       -1.47338060876860
H            1.41261226304748       -1.36968503984518       -0.20901713446498
