57
 energy: -95.351695561141 gnorm: 0.000112447687 xtb: 6.7.1 (edcfbbe)
O            3.39553238931723       -2.53918577702245       -0.06792135427353
C            3.95056380362369       -1.40805191105956        0.00561606241269
C            5.37518661818262       -1.30701647592401        0.26486029797443
C            6.06106904155342       -2.49766277894157        0.59280014840151
C            7.39175394357438       -2.47356119957814        0.92830972680229
C            8.10160279085778       -1.27472594367643        0.95328100140298
C            7.45475480220573       -0.09998060169506        0.60927731772850
C            6.11898791874697       -0.12798742966630        0.26539269603800
S            5.39934345233941        1.39214248454918       -0.32632490818766
O            5.82657198272604        2.49802387984420        0.49101411305760
O            5.65946267452339        1.49354769955041       -1.74045785211407
C            3.65817823422578        1.10518449209006       -0.09529425259016
C            2.82704581802986        2.20607049556555       -0.05340794014028
C            1.45570669331211        2.04193396877073       -0.02669274203765
C            0.91050503174725        0.74628061757817       -0.06292241225458
C           -0.53979868865146        0.53956562177439       -0.04587570484995
C           -1.37160006280168        1.34032982715673        0.74018435011512
C           -2.73367323569179        1.14043122813648        0.76637283062157
C           -3.31439079632138        0.12736153723946       -0.00271237332277
N           -4.69162975916392       -0.08120476592509        0.02316219999359
C           -5.56448292173051        1.00348467145398        0.15698608019519
C           -5.28289493752846        2.21748664080180       -0.47191035553657
C           -6.14834724716218        3.28481690404115       -0.33619237778336
C           -7.30328979134379        3.15997922997724        0.41992547014032
C           -7.58826330240143        1.95554651406572        1.04379589665673
C           -6.72810753990885        0.88259300053385        0.91824905832708
C           -5.20617841677157       -1.37785534567617       -0.08228275565158
C           -4.54929695209950       -2.44951284233884        0.52494285985699
C           -5.06109988502105       -3.72728064026514        0.41538537673362
C           -6.23074320437250       -3.95632725805588       -0.29214991155818
C           -6.88820247851951       -2.89464625222948       -0.89359989608930
C           -6.38341910142542       -1.61316789264618       -0.79426499310379
C           -2.48772730996195       -0.67472815019329       -0.79581780909386
C           -1.12646542773178       -0.47243226282727       -0.81033019958098
C            1.75479850097985       -0.34696149658124       -0.08847576604916
C            3.15682984093693       -0.19987970344128       -0.07292459723417
H            5.49334364649602       -3.41617404889660        0.57801737740361
H            7.89213888335367       -3.39730795203260        1.18015840231381
H            9.14561305267592       -1.25980268951751        1.22404956207563
H            7.96610308186301        0.84982774542267        0.59469496106250
H            3.28026239428563        3.18507981309856       -0.06089724028417
H            0.80745558911229        2.90375264701358       -0.02516512667695
H           -0.93732697357998        2.10819799090410        1.36195161521035
H           -3.36010140259319        1.75262316613169        1.39831490127853
H           -4.39132820417600        2.30955063718303       -1.07424607135224
H           -5.92391879713110        4.21760968244965       -0.83101414041679
H           -7.97741717791628        3.99620470183283        0.52206445617149
H           -8.48276377126831        1.85321118880431        1.63945380408747
H           -6.94272371390772       -0.05121721894926        1.41651925682939
H           -3.64664639263003       -2.26920347192122        1.08951165397384
H           -4.54732308450748       -4.54819021397046        0.89211990074747
H           -6.62756295047680       -4.95627482740150       -0.37443753993099
H           -7.79612002186474       -3.06673450959774       -1.45171875457089
H           -6.88743264787717       -0.78841606087239       -1.27607565081503
H           -2.92863955945238       -1.44404460325933       -1.41228827883876
H           -0.50494583072820       -1.08453493446215       -1.44528478358926
H            1.36772380165296       -1.35523423461092       -0.07640051325407
