57
 energy: -95.421991101080 gnorm: 0.000036617062 xtb: 6.7.1 (edcfbbe)
O            4.39718391480577        1.29285084095426       -2.03379814021448
C            4.84355544156618        0.74328624133306       -1.04671698008852
C            6.26096629935738        0.30004294261910       -0.99992362761293
C            6.93193303466537        0.13607864352593       -2.21447197505482
C            8.24437869198614       -0.29573663533944       -2.24116727328468
C            8.91341379976108       -0.56968831134531       -1.05718948162942
C            8.26365228240698       -0.39772542940820        0.15499818008075
C            6.95118452699651        0.02908437360474        0.17529337956838
S            6.17412103198819        0.34700542239230        1.75585551097927
O            6.58472791840809       -0.65240714893457        2.70418237155331
O            6.41363689322418        1.72449301901924        2.09532596207568
C            4.43829747231629        0.15471577808159        1.38842159302821
C            3.56687408744288       -0.16273327371041        2.41146119733252
C            2.20689011556077       -0.22563208289547        2.16925786008942
C            1.69844835602247        0.04630249710995        0.89619029920479
C            0.25530231278909        0.01108140727731        0.63836572184126
C           -0.56470279086991       -0.93386710666400        1.25556616118997
C           -1.92218861994900       -0.95955080819510        1.02186939564151
C           -2.51316790831001       -0.03060012271520        0.16145080602517
N           -3.88488321693932       -0.04486503923688       -0.06869601417732
C           -4.57645565569420        1.15304813661736       -0.30323653396944
C           -4.25403488569975        2.30807341367724        0.40773318704459
C           -4.94126647033472        3.48309224760617        0.17233683342074
C           -5.96199922837591        3.52355951714106       -0.76330826930961
C           -6.29032973634838        2.37646759264929       -1.46698541555414
C           -5.60317819034180        1.19871919884682       -1.24489183210183
C           -4.59446026502962       -1.25440317273294       -0.06412417285618
C           -5.87062375488085       -1.31848873300546        0.49327999550263
C           -6.57293499385278       -2.50806432838972        0.48677695481190
C           -6.01485173190268       -3.64915408489828       -0.06578215009204
C           -4.74628332282286       -3.59056698802749       -0.61922418777726
C           -4.03932304909106       -2.40373490016505       -0.62502592371467
C           -1.69450506288526        0.91562240550701       -0.46101653626279
C           -0.33733572360283        0.93151538161326       -0.22700931139421
C            2.59395349700164        0.36318635810568       -0.12209896812311
C            3.96752520790664        0.41817961979332        0.10667301363924
H            6.39703277356657        0.35511270491591       -3.12663969162268
H            8.74981205664520       -0.41798338533298       -3.18727485968678
H            9.93789459071512       -0.90870477416907       -1.07749664561949
H            8.75352904695334       -0.59277223743119        1.09608336717119
H            3.97575578368611       -0.35520154479951        3.39105968315075
H            1.53000371104767       -0.45837312889593        2.97710633383878
H           -0.13040314630726       -1.67071768594941        1.91474554683609
H           -2.53998097053831       -1.69716065958711        1.51226175502703
H           -3.46600909331339        2.27561159702433        1.14589148080691
H           -4.68318370278455        4.37098920453909        0.73034190923092
H           -6.49856929532675        4.44279200746561       -0.94212299811022
H           -7.08238896849058        2.39996761210513       -2.20075878860036
H           -5.85493179118077        0.30676333864767       -1.79974855868593
H           -6.30387549338036       -0.43117108474493        0.93117060166484
H           -7.55993937206129       -2.54550252527370        0.92354776256540
H           -6.56527515102241       -4.57756339823132       -0.06626091084727
H           -4.30653250057201       -4.47372757874395       -1.05869295449423
H           -3.05508393126611       -2.35695974442665       -1.06780438957232
H           -2.13390642884330        1.63642930050936       -1.13432400811920
H            0.27203445139319        1.68183029839263       -0.70749437104290
H            2.24049515379854        0.55715081219191       -1.12396189368826
