  94
  -140.822184562300        1.00000000000000      !
 C         -7.3925637153       -2.4945536751        0.9007011178
 C         -5.9646785551       -2.7275260497        0.3727324114
 C         -5.7119061688       -4.2335955531        0.1726220241
 C         -5.8198662129       -2.0333673441       -0.9648492313
 C         -6.6644043170       -2.3695388273       -2.0128595701
 C         -6.5636738813       -1.7692547620       -3.2550237980
 C         -5.5918115639       -0.8043607507       -3.4712253610
 C         -4.7377449894       -0.4520170802       -2.4513629140
 C         -4.8382613982       -1.0564810737       -1.1902882069
 N         -3.9747825680       -0.6757169548       -0.1907709408
 C         -2.9489492913        0.2691800203       -0.4805925612
 C         -1.7325463536       -0.1630496884       -0.9958967658
 C         -0.7278684142        0.7463076061       -1.2397573435
 C         -0.9077118059        2.1069095941       -0.9473735257
 C          0.1777622995        3.0549922887       -1.2471099483
 O          1.0033347465        2.8324120640       -2.1434650948
 C          0.1692522066        4.2955618527       -0.4561372932
 C          0.4064745881        5.5303939728       -1.0591572170
 C          0.2348118807        6.6955328689       -0.3430344176
 C         -0.1775772788        6.6469286084        0.9886366139
 C         -0.3605886641        5.4325751198        1.6145860916
 C         -0.1347812448        4.2445790257        0.9197900461
 C         -0.1489352057        2.9465566818        1.6126672271
 O         -0.9649983962        2.6600691513        2.4987068150
 C          0.9245230876        2.0170943603        1.2213355457
 C          0.7314092044        0.6360274672        1.3756715167
 C          1.7203395728       -0.2550754103        1.0248995702
 C          2.9377383783        0.2140834115        0.5437390327
 N          3.9474432147       -0.7002429277        0.1344904314
 C          4.6816495333       -1.3617148205        1.0915186263
 C          4.4626900708       -1.0762964624        2.4471957069
 C          5.1749197623       -1.7260282249        3.4293184280
 C          6.1250270644       -2.6736705501        3.0808685775
 C          6.3567041195       -2.9455902068        1.7447775408
 C          5.6574224094       -2.3039732683        0.7325614771
 C          5.9660413639       -2.6235949760       -0.7141538586
 C          5.6907063055       -4.1187122430       -0.9608200072
 C          7.4495708663       -2.3057382252       -0.9802107423
 C          5.1175275328       -1.8100960251       -1.6681885602
 C          5.2787194146       -1.9707707223       -3.0371573767
 C          4.5251709530       -1.2570162023       -3.9511994849
 C          3.5760716847       -0.3545544134       -3.4959513530
 C          3.3903190569       -0.1755885317       -2.1441140983
 C          4.1573125312       -0.8930531156       -1.2140737490
 C          3.1710345712        1.5885359093        0.4595874873
 C          2.1792722678        2.4761852602        0.7976579950
 C         -2.1580219876        2.5336380490       -0.4799025311
 C         -3.1642765374        1.6281534191       -0.2451300814
 C         -4.0528991201       -1.1943784407        1.0818929113
 C         -3.1862913077       -0.7145940198        2.0741979400
 C         -3.2197099863       -1.2353516705        3.3475923482
 C         -4.1169179587       -2.2462169254        3.6575480795
 C         -4.9852978121       -2.7088591873        2.6855013748
 C         -4.9811599135       -2.1985313484        1.3951264598
 H         -7.5364441948       -2.9890492445        1.8566912278
 H         -8.1318352058       -2.8794347014        0.2046102817
 H         -7.5679484185       -1.4289803166        1.0352064069
 H         -4.7021756677       -4.3937091360       -0.2009976162
 H         -6.4134282240       -4.6502668753       -0.5445241750
 H         -5.8206416199       -4.7715480978        1.1099715904
 H         -7.4242459296       -3.1211090665       -1.8629245485
 H         -7.2382456757       -2.0527205393       -4.0478342893
 H         -5.5013705308       -0.3259276760       -4.4342550266
 H         -3.9816439001        0.2988911267       -2.6129626480
 H         -1.5846290193       -1.2150940567       -1.1950015628
 H          0.2184831407        0.4255841653       -1.6440015717
 H          0.6872782590        5.5539038931       -2.1017677756
 H          0.3999897278        7.6506618224       -0.8191896121
 H         -0.3325245261        7.5648448212        1.5361859433
 H         -0.6401318000        5.3800329802        2.6564555953
 H         -0.2151602237        0.2853799901        1.7526516508
 H          1.5580272356       -1.3202569122        1.1103552850
 H          3.7299284164       -0.3331205093        2.7152762311
 H          4.9912174477       -1.4919703024        4.4666805212
 H          6.6862388712       -3.1915792277        3.8428823747
 H          7.1064928030       -3.6785955155        1.4900386869
 H          4.6408850643       -4.3379430366       -0.7751814751
 H          6.2926200990       -4.7365861534       -0.3007184287
 H          5.9216251644       -4.3897956181       -1.9868605114
 H          8.0937877262       -2.8852750107       -0.3255701213
 H          7.6389779848       -1.2489648933       -0.8020007163
 H          7.7153880863       -2.5333438775       -2.0082309752
 H          6.0114187857       -2.6711645699       -3.4071113174
 H          4.6778077824       -1.4046360654       -5.0090845426
 H          2.9788942531        0.2138416085       -4.1917293292
 H          2.6576005806        0.5353937567       -1.8021991026
 H          4.1339047570        1.9404287933        0.1200500359
 H          2.3659841223        3.5359204818        0.7296051514
 H         -2.3317618926        3.5820253531       -0.2979713411
 H         -4.1243576611        1.9543010243        0.1265980361
 H         -2.5024402799        0.0831501648        1.8391293929
 H         -2.5474535494       -0.8495630120        4.0982123894
 H         -4.1458190054       -2.6665007016        4.6509575167
 H         -5.6834055372       -3.4891414423        2.9463667447
