34
 energy: -50.008380424047 gnorm: 0.000026243988 xtb: 6.7.1 (edcfbbe)
C           -4.84110301562930        1.37586641092623       -0.00497469333082
C           -5.03225596396574        0.00192336736567       -0.00792677053202
C           -3.95145234155780       -0.86494086221919       -0.00573449422674
C           -2.67175899974694       -0.33223986535499       -0.00094637953648
C           -2.48049884456512        1.05813142419323        0.00170836703727
C           -3.56135034556161        1.91477385260144       -0.00003923298133
C           -1.01431887289764        1.38122694185285        0.00547421915317
C           -0.38006935520248        0.02144014894460        0.00309562416027
C           -1.36859101959874       -0.97807744587588        0.00058492487699
C           -1.03766085015361       -2.32576068839352       -0.00108429363396
C            0.29982701526593       -2.69736790196468       -0.00132489581662
C            1.27715665634638       -1.72141491090394       -0.00040089970892
C            0.95136789928921       -0.35109645823285        0.00207904065422
C            2.18786820153176        0.41626712154286        0.00091817072634
C            2.41963483266199        1.78346935935212        0.00180663039657
C            3.72894871499708        2.23759838090730       -0.00183453090679
C            4.79185706668009        1.34693634148046       -0.00622937422296
C            4.56678781967006       -0.02309442108555       -0.00658596484994
C            3.26667888738407       -0.48306247810595       -0.00293410615292
C            2.76766214313762       -1.89804992698297       -0.00289820649505
H           -5.69828265673398        2.03397321455776       -0.00684020491295
H           -6.03729093334643       -0.39581218338035       -0.01212927131092
H           -4.10615884932332       -1.93407618119375       -0.00816280311054
H           -3.41955883995217        2.98639304026749        0.00208455853947
H           -0.72898698328218        1.96271562248563       -0.87504217624333
H           -0.73246538981873        1.95744962563184        0.89061621360663
H           -1.81197839679846       -3.07869363844788       -0.00253778161989
H            0.57317935028234       -3.74313985596784       -0.00283204862658
H            1.60147629493802        2.48666747879241        0.00514306210121
H            3.92531313322129        3.30050603388841       -0.00147866790622
H            5.80496161571753        1.72298070292599       -0.00943135745018
H            5.39775827459959       -0.71439391211816       -0.00992673994956
H            3.10843886078976       -2.44738952198580       -0.88440404184559
H            3.11136764939845       -2.44812132062828        0.87703304471521
