34
 energy: -49.896879009594 gnorm: 0.000078968472 xtb: 6.7.1 (edcfbbe)
C           -4.84464914168562        1.36843753095631       -0.00250816197623
C           -5.02432733453775       -0.02494654007357       -0.00370892902235
C           -3.95901346058075       -0.88295559108830       -0.00334757129534
C           -2.64191670351329       -0.34086830308795       -0.00180971237667
C           -2.47353721869226        1.09213350450027       -0.00060697586255
C           -3.55350364782753        1.92401861445647       -0.00093381143716
C           -1.00846631582983        1.41274093571132        0.00075386313906
C           -0.37126326552688        0.05127233894764       -0.00029445756448
C           -1.38814566972608       -0.94963302056023       -0.00143787162756
C           -1.03599236316055       -2.35974410071903       -0.00238116825636
C            0.28905357944148       -2.71511828212038       -0.00282406368696
C            1.27845237368898       -1.73806732210605       -0.00221100409072
C            0.94434049113106       -0.31394166209773       -0.00077060501584
C            2.17475085714414        0.42366837200889       -0.00083666387697
C            2.42368662214962        1.79818542655485        0.00016742981395
C            3.73336493284842        2.24080623918160       -0.00078223085071
C            4.79227923792098        1.34236922736565       -0.00271364290691
C            4.55446111852691       -0.03223412941642       -0.00355130955164
C            3.25725740249130       -0.48424008719281       -0.00255551815438
C            2.76235714855340       -1.90574627609235       -0.00316213111105
H           -5.70670005214244        2.01754552147343       -0.00286729464498
H           -6.03180177649812       -0.41758588569460       -0.00496001144925
H           -4.10116368917370       -1.95289619273591       -0.00430523378228
H           -3.43214178933344        2.99818726930279       -0.00005441709234
H           -0.72269192357921        1.99338913946641       -0.88083505466225
H           -0.72394906855972        1.99132404594460        0.88412114495047
H           -1.82044686288385       -3.09855553663978       -0.00276859620936
H            0.57185841637524       -3.75909171697610       -0.00367080268547
H            1.60918305074747        2.50518247751406        0.00165357678006
H            3.93839118559111        3.30216996226707       -0.00007640234080
H            5.80823743617890        1.70935581504243       -0.00354373122272
H            5.38288188929875       -0.72666664259897       -0.00499108521115
H            3.11231737345640       -2.45795843182521       -0.88330988191427
H            3.11334782211476       -2.45895406497054        0.87596137347017
