34
 energy: -49.896879641362 gnorm: 0.000068612077 xtb: 6.7.1 (edcfbbe)
C           -4.84199425893896        1.37329842529347        0.00072413608335
C           -5.02381850571760       -0.01979026578115        0.00257300560628
C           -3.95991878778279       -0.87954712252137        0.00291240486351
C           -2.64190080570861       -0.33965187946273        0.00150262614174
C           -2.47139994697951        1.09311740207554       -0.00016451830614
C           -3.54998177291367        1.92676015912292       -0.00066384340466
C           -1.00589239256234        1.41159553032958       -0.00093251128369
C           -0.37073966593677        0.04924920640073        0.00042928238004
C           -1.38900545925554       -0.95024503307991        0.00151054001348
C           -1.03846648071773       -2.36079643953553        0.00251720313161
C            0.28615703181937       -2.71786741903556        0.00260003369563
C            1.27684260849830       -1.74212728052774        0.00187243972702
C            0.94436152689445       -0.31765673132819        0.00095160321697
C            2.17545357163110        0.41865502883219        0.00099737905298
C            2.42558525871201        1.79295021364679        0.00102003826351
C            3.73562650756320        2.23438304456558        0.00141824738511
C            4.79369400771236        1.33495282046970        0.00158187966547
C            4.55465758034446       -0.03944267334426        0.00155451660406
C            3.25707332046233       -0.49032782021647        0.00140955876039
C            2.76062143631387       -1.91133355140575        0.00185405390051
H           -5.70298323761846        2.02380036647773        0.00045012403844
H           -6.03192812354774       -0.41078475263459        0.00372285158324
H           -4.10395916492531       -1.94922964502575        0.00431948349459
H           -3.42678732976552        3.00071980484126       -0.00182774091321
H           -0.72011606834494        1.98966005546070       -0.88424003766752
H           -0.71964054398667        1.99193719252090        0.88071954483801
H           -1.82373256601512       -3.09875701010371        0.00302556476077
H            0.56754358092024       -3.76222609337071        0.00304136898323
H            1.61168447357131        2.50062605754254        0.00074853675289
H            3.94161816279601        3.29555536891036        0.00139977715991
H            5.80996639889121        1.70103815161510        0.00178427736780
H            5.38255024159888       -0.73450489748753        0.00192543707399
H            3.11050984235965       -2.46468972039455       -0.87761524103971
H            3.11056210760751       -2.46414137373150        0.88164919072909
