  68
        -99.04637469
 C         -7.0780418455        0.5364208895        0.3791052954
 C         -6.2908394660       -0.2246141809        1.2278708363
 C         -4.9162840793       -0.2249165020        1.0900125934
 C         -4.3047878667        0.5366929182        0.0955076645
 C         -2.8410474397        0.5642885343       -0.0476735254
 C         -2.0802928842       -0.5533724873        0.0044182927
 C         -2.6538530761       -1.9081781943       -0.0064727344
 C         -2.1510207468       -2.8859352447        0.8498106057
 C         -2.6721239803       -4.1659200904        0.8385465773
 C         -3.6930657992       -4.4939011579       -0.0378024272
 C         -4.1853923780       -3.5348130428       -0.9079710498
 C         -3.6708436308       -2.2528338920       -0.8949748619
 C         -0.6131694215       -0.4857299253        0.0625230666
 C          0.1678015714       -1.3114314389       -0.7446649828
 C          1.5434400399       -1.2187211805       -0.7342344747
 C          2.1824787263       -0.3090562411        0.1084954922
 N          3.5740770620       -0.1780068350        0.0990315607
 C          4.1507148163        1.0881491718        0.2497094534
 C          5.3493491910        1.2414585917        0.9462747058
 C          5.9160973549        2.4928314240        1.0899273768
 C          5.2972294014        3.6100784440        0.5535993508
 C          4.1036314397        3.4641941071       -0.1342792909
 C          3.5337754229        2.2162421342       -0.2921526434
 C          4.3842199202       -1.3030118841       -0.0898008208
 C          4.0328483393       -2.5281546163        0.4769050660
 C          4.8323142469       -3.6381046646        0.2862771180
 C          5.9946032353       -3.5463731639       -0.4619010143
 C          6.3496081424       -2.3314398981       -1.0248106712
 C          5.5524534288       -1.2176467572       -0.8469959849
 C          1.4058662718        0.4783149995        0.9605113560
 C          0.0319610198        0.3945255150        0.9311723633
 C         -2.2514276312        1.8993757722       -0.2490229679
 C         -1.2898398784        2.1171642370       -1.2346910154
 C         -0.7477731462        3.3739282098       -1.4207635369
 C         -1.1588015173        4.4353653545       -0.6307878839
 C         -2.1276352154        4.2342083532        0.3378449917
 C         -2.6751528118        2.9784888831        0.5236216313
 C         -5.1047246909        1.3134814741       -0.7410289016
 C         -6.4797920965        1.3073425738       -0.6037104601
 H         -8.1526533462        0.5333723111        0.4872527458
 H         -6.7511739186       -0.8182744315        2.0042422500
 H         -4.3057865613       -0.8091587948        1.7628275157
 H         -1.3560185479       -2.6296513457        1.5361430211
 H         -2.2800315576       -4.9115786933        1.5151310576
 H         -4.0998289666       -5.4943865123       -0.0469933388
 H         -4.9730202454       -3.7887576225       -1.6024566510
 H         -4.0488866086       -1.5113341957       -1.5832990682
 H         -0.3160096642       -2.0093794119       -1.4131938649
 H          2.1334017150       -1.8419710303       -1.3903214128
 H          5.8287663710        0.3738727949        1.3757095374
 H          6.8438999665        2.5971039177        1.6331978031
 H          5.7413482554        4.5867888426        0.6717089837
 H          3.6147242145        4.3287359780       -0.5588650071
 H          2.6065217567        2.1066526166       -0.8355115689
 H          3.1319805666       -2.5997442800        1.0687028851
 H          4.5499055135       -4.5803075097        0.7327723597
 H          6.6186847545       -4.4153196270       -0.6054251462
 H          7.2506646446       -2.2514721740       -1.6151576782
 H          5.8262055244       -0.2739777297       -1.2958313627
 H          1.8926842973        1.1602098457        1.6422163114
 H         -0.5541191058        1.0082213344        1.5989144510
 H         -0.9768138121        1.2950748463       -1.8617361906
 H         -0.0038639203        3.5287183514       -2.1893144286
 H         -0.7306838493        5.4165262207       -0.7745523359
 H         -2.4584666893        5.0599419428        0.9512350285
 H         -3.4291963058        2.8230108768        1.2825703453
 H         -4.6394534914        1.9142566670       -1.5100472325
 H         -7.0879843482        1.9081573950       -1.2645163802
  68
        -99.04575095
 C         -7.1091828206        0.5026733226        0.2467208483
 C         -6.3228581559       -0.1526682147        1.1803163693
 C         -4.9461440250       -0.1385425509        1.0644988447
 C         -4.3332648088        0.5329633986        0.0086250550
 C         -2.8673977053        0.5725569674       -0.1227878920
 C         -2.0915287526       -0.5265041126       -0.0002453864
 C         -2.6302033417       -1.8893509972        0.1260469376
 C         -2.0614857870       -2.7653328294        1.0498080424
 C         -2.5444359834       -4.0521543147        1.1905858640
 C         -3.5944411931       -4.4903336368        0.4011366362
 C         -4.1516889158       -3.6351909568       -0.5357002429
 C         -3.6744968476       -2.3459083494       -0.6755013812
 C         -0.6223862003       -0.4359980405        0.0353419806
 C          0.1536213123       -1.2390457676       -0.7975977984
 C          1.5287447984       -1.1451128562       -0.7929472791
 C          2.1757167631       -0.2718951967        0.0832569765
 N          3.5677824468       -0.1709621846        0.0929221701
 C          4.1851144630        1.0472869554        0.4040545943
 C          5.3645722129        1.0645798984        1.1482919949
 C          5.9743643344        2.2640502579        1.4599435514
 C          5.4178229477        3.4627457827        1.0450062405
 C          4.2467614627        3.4512486508        0.3049031065
 C          3.6348950533        2.2565698363       -0.0208676553
 C          4.3609116227       -1.2799412508       -0.2295299059
 C          4.0088124328       -2.5575660999        0.2048136269
 C          4.7896887303       -3.6464146059       -0.1307544337
 C          5.9360745297       -3.4812940330       -0.8907857100
 C          6.2969167541       -2.2128659252       -1.3147150704
 C          5.5169604678       -1.1192815520       -0.9929221719
 C          1.4009159697        0.4992928833        0.9521179165
 C          0.0255863382        0.4289276347        0.9145026741
 C         -2.2942914477        1.9045273721       -0.3827630759
 C         -1.3100915302        2.0957352581       -1.3508670986
 C         -0.7809450080        3.3521806565       -1.5747115957
 C         -1.2272662141        4.4393107464       -0.8411683970
 C         -2.2199094273        4.2641051566        0.1082841287
 C         -2.7541149123        3.0090520105        0.3317581711
 C         -5.1318740465        1.2067448725       -0.9133589050
 C         -6.5090689951        1.1845420518       -0.7986802014
 H         -8.1854028398        0.4865281135        0.3368333417
 H         -6.7857504849       -0.6754667951        2.0047327121
 H         -4.3353685663       -0.6420892201        1.7995354895
 H         -1.2452980894       -2.4218165655        1.6699617506
 H         -2.1000183748       -4.7156683007        1.9185128279
 H         -3.9725325105       -5.4961236193        0.5108850840
 H         -4.9617971986       -3.9772315734       -1.1633308076
 H         -4.1043227804       -1.6881068620       -1.4164659824
 H         -0.3336807182       -1.9219698542       -1.4790963164
 H          2.1120270158       -1.7469959956       -1.4741313828
 H          5.7950346763        0.1317192180        1.4823201273
 H          6.8859051840        2.2623390675        2.0394926890
 H          5.8931688828        4.3986272536        1.2966768598
 H          3.8082079835        4.3804547643       -0.0281870891
 H          2.7258166996        2.2523390585       -0.6044959827
 H          3.1206179618       -2.6884123036        0.8054928415
 H          4.5039777118       -4.6309545783        0.2095916493
 H          6.5430529126       -4.3349214768       -1.1516153205
 H          7.1862566446       -2.0745144984       -1.9119400032
 H          5.7936089393       -0.1326259720       -1.3350537092
 H          1.8864795020        1.1574188063        1.6573829054
 H         -0.5593390393        1.0380301182        1.5879037573
 H         -0.9682261821        1.2545483448       -1.9356255334
 H         -0.0176183322        3.4856084565       -2.3279904289
 H         -0.8081553669        5.4197329645       -1.0138405262
 H         -2.5804025218        5.1095642705        0.6763641271
 H         -3.5285173461        2.8744022838        1.0739599728
 H         -4.6637904157        1.7377805461       -1.7305111256
 H         -7.1168921898        1.7021394046       -1.5268366096
  68
        -99.04562413
 C         -7.0912536341        0.5048206357        0.2554729311
 C         -6.2611957288        0.1651478202        1.3113230707
 C         -4.8898432766        0.1573303427        1.1445678057
 C         -4.3250203909        0.4884012932       -0.0858555455
 C         -2.8652432585        0.5048318252       -0.2721317592
 C         -2.0639348351       -0.4865765118        0.1797997114
 C         -2.5973639536       -1.7543150440        0.7057160762
 C         -2.0645000969       -2.3085461218        1.8679471165
 C         -2.5455370781       -3.5070997608        2.3599587444
 C         -3.5560396619       -4.1782666409        1.6917833424
 C         -4.0795805136       -3.6450614388        0.5253149449
 C         -3.6051862307       -2.4438863560        0.0344061240
 C         -0.5980418664       -0.3778047793        0.1731069571
 C          0.1857545967       -1.4566858628       -0.2350400387
 C          1.5612988561       -1.3716701292       -0.2441574273
 C          2.2000062856       -0.2006834678        0.1656350298
 N          3.5949262457       -0.1081255399        0.1427807646
 C          4.2698173485        0.5942400228        1.1469777781
 C          3.8194880268        0.5502240369        2.4663884362
 C          4.4880330374        1.2470469617        3.4538464304
 C          5.6168179987        1.9895756029        3.1483190478
 C          6.0707359138        2.0336635798        1.8402314373
 C          5.4040032223        1.3476265016        0.8441324768
 C          4.3145888339       -0.7102013261       -0.8955759607
 C          3.8072898487       -0.7183468883       -2.1949458630
 C          4.5177798027       -1.3186161038       -3.2158109871
 C          5.7447173731       -1.9105269158       -2.9639815853
 C          6.2554057218       -1.9010448658       -1.6762728875
 C          5.5483065668       -1.3112667825       -0.6467870050
 C          1.4207463147        0.8727622860        0.5994074529
 C          0.0459440163        0.7816785998        0.6043423822
 C         -2.3383161266        1.6773805777       -0.9903733945
 C         -1.4097069523        1.5305693528       -2.0193224656
 C         -0.9398840572        2.6353766870       -2.7026747842
 C         -1.3892510200        3.9036639843       -2.3725953923
 C         -2.3219177269        4.0592863533       -1.3608483045
 C         -2.7987603337        2.9552728240       -0.6794614968
 C         -5.1681017753        0.8479851758       -1.1358825314
 C         -6.5397708606        0.8488817203       -0.9674450681
 H         -8.1633392380        0.5078421759        0.3873084079
 H         -6.6855071618       -0.0909255092        2.2714263442
 H         -4.2457246754       -0.0956440213        1.9739058622
 H         -1.2767690511       -1.7843471555        2.3908613324
 H         -2.1295028533       -3.9209097553        3.2672628036
 H         -3.9301132006       -5.1161307229        2.0752768058
 H         -4.8595982848       -4.1704240880       -0.0064617533
 H         -4.0070178090       -2.0377384359       -0.8822020340
 H         -0.2951349888       -2.3696811728       -0.5564502090
 H          2.1540658305       -2.2148046926       -0.5679041519
 H          2.9460497534       -0.0369211475        2.7096325396
 H          4.1296643832        1.2023347770        4.4719160678
 H          6.1393584764        2.5289759903        3.9236681269
 H          6.9468283717        2.6143389586        1.5910521509
 H          5.7535800667        1.3935040706       -0.1768943259
 H          2.8559554614       -0.2473518448       -2.3955011410
 H          4.1140679755       -1.3164247543       -4.2177306608
 H          6.2993769007       -2.3743496052       -3.7655698003
 H          7.2090907313       -2.3641924653       -1.4693559675
 H          5.9444326549       -1.3140957342        0.3581705268
 H          1.9034842334        1.7811549189        0.9287733253
 H         -0.5412874885        1.6193745486        0.9498944048
 H         -1.0673782357        0.5417066572       -2.2875193710
 H         -0.2220177725        2.5075892485       -3.5000229948
 H         -1.0184636299        4.7664753292       -2.9061205298
 H         -2.6810542280        5.0452867230       -1.1034128703
 H         -3.5264401240        3.0781425297        0.1104938408
 H         -4.7390862306        1.1143224847       -2.0918369466
 H         -7.1817623358        1.1214206865       -1.7927545477
  68
        -99.04551160
 C         -7.0837987191        0.1423951565        0.6668840975
 C         -6.2545613219       -0.9022135111        1.0412083033
 C         -4.8835284111       -0.7799207217        0.9230080887
 C         -4.3184161933        0.3925321500        0.4247908542
 C         -2.8588591219        0.5450583963        0.3080540361
 C         -2.0700950679       -0.4203069037       -0.2162081945
 C         -2.6293030132       -1.6077051655       -0.8858261071
 C         -2.1216744444       -2.8742558869       -0.6039484817
 C         -2.6326980359       -3.9925311753       -1.2352077828
 C         -3.6474517049       -3.8619448074       -2.1685852901
 C         -4.1446974359       -2.6047956605       -2.4708573979
 C         -3.6409545699       -1.4858611740       -1.8360295687
 C         -0.6029411825       -0.3588096216       -0.1694787767
 C          0.1500085348       -0.7335894130       -1.2822681651
 C          1.5270190654       -0.6854605756       -1.2587884447
 C          2.2012444273       -0.2606760965       -0.1130060205
 N          3.5963541399       -0.1955460474       -0.0918038764
 C          4.3012974627        0.1596626161       -1.2480957840
 C          3.8027293171        1.1334280744       -2.1132285171
 C          4.5013007478        1.4728143382       -3.2554411039
 C          5.7075229253        0.8585273666       -3.5499333185
 C          6.2108730724       -0.1040011986       -2.6902384387
 C          5.5155296630       -0.4566546782       -1.5501778302
 C          4.2989695117       -0.4815172880        1.0849713823
 C          3.8777519369       -1.5059761006        1.9322938208
 C          4.5750814897       -1.7801331170        3.0925779484
 C          5.7037556062       -1.0481805521        3.4233228747
 C          6.1296695082       -0.0331338705        2.5823616028
 C          5.4343792855        0.2540197041        1.4240362492
 C          1.4527470293        0.0924485742        1.0113185775
 C          0.0763765464        0.0375749919        0.9824454178
 C         -2.3239494125        1.8255733513        0.8003855614
 C         -1.4069851977        2.5588303542        0.0495482110
 C         -0.9287796647        3.7685870105        0.5145219855
 C         -1.3578685854        4.2671206853        1.7339118916
 C         -2.2803514220        3.5536329853        2.4805916404
 C         -2.7659067221        2.3461386676        2.0150586097
 C         -5.1604432242        1.4451715193        0.0708282156
 C         -6.5317597507        1.3172748604        0.1843339279
 H         -8.1556089691        0.0433237449        0.7566130923
 H         -6.6790982101       -1.8160920629        1.4310234695
 H         -4.2401016752       -1.5921427078        1.2278868504
 H         -1.3304751699       -2.9765875315        0.1256503073
 H         -2.2369178488       -4.9700521122       -0.9999000558
 H         -4.0455306305       -4.7359260847       -2.6628013110
 H         -4.9275328209       -2.4959293028       -3.2073521672
 H         -4.0234715884       -0.5060876743       -2.0818524989
 H         -0.3565563852       -1.0596660629       -2.1795465652
 H          2.0928385486       -0.9810991717       -2.1301789239
 H          2.8677189854        1.6215748632       -1.8800453490
 H          4.1039695753        2.2285594606       -3.9171378129
 H          6.2512960257        1.1278701562       -4.4426228280
 H          7.1487408868       -0.5912618673       -2.9133412910
 H          5.9051758993       -1.2148316726       -0.8866149899
 H          3.0041962312       -2.0851108480        1.6708927602
 H          4.2383736109       -2.5765331822        3.7400784251
 H          6.2467470908       -1.2664085489        4.3303664657
 H          7.0056673729        0.5463770060        2.8343833308
 H          5.7633038697        1.0518083425        0.7741635778
 H          1.9601815275        0.4147085112        1.9086476431
 H         -0.4836618291        0.3033211629        1.8664893580
 H         -1.0800852859        2.1780372975       -0.9070612509
 H         -0.2198116578        4.3286190922       -0.0780426299
 H         -0.9798642994        5.2114510041        2.0972406165
 H         -2.6235846165        3.9403050745        3.4293488333
 H         -3.4834959484        1.7881147320        2.6002010197
 H         -4.7309042940        2.3620731774       -0.3080342621
 H         -7.1730640990        2.1376837599       -0.1040073226
  68
        -99.04548205
 C         -7.0788080589        0.6323279390        0.0639146863
 C         -6.4451142583        0.9030846938        1.2652580495
 C         -5.0663536138        0.8588691135        1.3484467002
 C         -4.2991894971        0.5276720743        0.2329822305
 C         -2.8312819924        0.4986609356        0.3321410298
 C         -2.0807931777       -0.4900431257       -0.2027625134
 C         -2.6604129503       -1.7212469934       -0.7620635375
 C         -3.6673274956       -2.4150666855       -0.0934672626
 C         -4.1869341693       -3.5798939416       -0.6243627705
 C         -3.7097903572       -4.0727778255       -1.8280553683
 C         -2.6987600098       -3.3991605858       -2.4929130131
 C         -2.1724624338       -2.2369971556       -1.9613645922
 C         -0.6123004148       -0.4048153082       -0.2487083725
 C          0.0292388386        0.7394943031       -0.7201644175
 C          1.4047674576        0.8248805412       -0.7336269472
 C          2.1806879539       -0.2353051168       -0.2656088396
 N          3.5773049802       -0.1393645904       -0.2278061599
 C          4.2665467749        0.4693424410       -1.2796182684
 C          5.4104523088        1.2302761873       -1.0375667519
 C          6.0889849216        1.8200253922       -2.0859367414
 C          5.6377132492        1.6724661275       -3.3873404876
 C          4.4975273835        0.9250424596       -3.6326718776
 C          3.8167153796        0.3240717166       -2.5922930051
 C          4.2631941191       -0.6287812824        0.8886807160
 C          5.5081942880       -1.2414435474        0.7488584834
 C          6.1767408012       -1.7191034817        1.8591778376
 C          5.6161427482       -1.6041768439        3.1207913591
 C          4.3770255818       -1.0016969102        3.2644811380
 C          3.7043510747       -0.5132158660        2.1618114089
 C          1.5442189315       -1.3954114079        0.1756991888
 C          0.1683483641       -1.4797231605        0.1732058031
 C         -2.2284857120        1.6291405839        1.0594218464
 C         -2.6639912494        2.9300680938        0.8164855487
 C         -2.1098596865        3.9959714736        1.5002040275
 C         -1.1227630656        3.7786508353        2.4467932160
 C         -0.6982886900        2.4867346605        2.7113397276
 C         -1.2462153219        1.4199264832        2.0257479589
 C         -4.9459591647        0.2691736193       -0.9740791991
 C         -6.3241609632        0.3211581028       -1.0554708422
 H         -8.1562985390        0.6692666752       -0.0012577150
 H         -7.0279551074        1.1520700719        2.1403835006
 H         -4.5724574607        1.0690628927        2.2869188491
 H         -4.0333235542       -2.0411472777        0.8514531664
 H         -4.9663012557       -4.1086757667       -0.0950328528
 H         -4.1204330206       -4.9814464364       -2.2431949408
 H         -2.3186675332       -3.7818478122       -3.4291803083
 H         -1.3845694560       -1.7104661636       -2.4816440304
 H         -0.5609728521        1.5710441902       -1.0758338812
 H          1.8901919408        1.7198147114       -1.0945629665
 H          5.7584206495        1.3588296312       -0.0231067195
 H          6.9725975723        2.4075001770       -1.8834857596
 H          6.1693569463        2.1377950250       -4.2035091870
 H          4.1398792960        0.8008070102       -4.6444112344
 H          2.9340090737       -0.2671535969       -2.7877930141
 H          5.9430759461       -1.3421594511       -0.2348104573
 H          7.1398306802       -2.1927919468        1.7369046514
 H          6.1409385476       -1.9811479892        3.9854503866
 H          3.9341809555       -0.9028766987        4.2448263448
 H          2.7431906421       -0.0334353285        2.2767533210
 H          2.1399763000       -2.2266782536        0.5238803605
 H         -0.3150605704       -2.3824093086        0.5191177369
 H         -3.4332053173        3.1013179641        0.0764283569
 H         -2.4500764483        5.0006801078        1.2947546121
 H         -0.6901752044        4.6117735087        2.9809453081
 H          0.0614091359        2.3105237797        3.4592639967
 H         -0.9237751330        0.4126784983        2.2455334454
 H         -4.3602181810        0.0371547498       -1.8515154606
 H         -6.8130810885        0.1203481346       -1.9977596693
  68
        -99.04531379
 C         -7.0657224688        0.2335129185        0.8445035121
 C         -6.2500229046       -0.8391025480        1.1662258335
 C         -4.8847897316       -0.7588963149        0.9713903171
 C         -4.3110469498        0.3990890909        0.4485453900
 C         -2.8543053513        0.5107564028        0.2786454408
 C         -2.0975205384       -0.4809437027       -0.2458399243
 C         -2.6801073859       -1.6562292951       -0.9114982027
 C         -2.1573300440       -2.9266454259       -0.6766022274
 C         -2.6873665372       -4.0336965799       -1.3119644668
 C         -3.7376922075       -3.8887790428       -2.2029096086
 C         -4.2517695281       -2.6278621346       -2.4584337334
 C         -3.7284770612       -1.5201167206       -1.8201635446
 C         -0.6283302300       -0.4392614524       -0.1920322793
 C          0.1358751542       -0.7537644795       -1.3147873088
 C          1.5121926780       -0.6866356991       -1.2768175434
 C          2.1715783969       -0.3123866576       -0.1046052481
 N          3.5628895992       -0.2108201716       -0.0775370856
 C          4.2561852746        0.2439595102       -1.2070824344
 C          3.7470870123        1.2834335120       -1.9842067983
 C          4.4458029490        1.7299912429       -3.0890004016
 C          5.6580864994        1.1543932876       -3.4330855358
 C          6.1677762936        0.1212030313       -2.6636409777
 C          5.4744170518       -0.3355062849       -1.5600000299
 C          4.2843640539       -0.5167201757        1.0824393849
 C          3.9277014762       -1.6044112527        1.8783773290
 C          4.6577376367       -1.9036357639        3.0124891394
 C          5.7513262447       -1.1314797075        3.3686929252
 C          6.1083948952       -0.0483638332        2.5821012941
 C          5.3819623132        0.2619437894        1.4495207061
 C          1.4117610989       -0.0382562722        1.0338054069
 C          0.0365124403       -0.1021776200        0.9867983641
 C         -2.2627525098        1.7810631344        0.7323723996
 C         -1.3374550274        2.4600517314       -0.0587846338
 C         -0.7936109879        3.6560090820        0.3673836719
 C         -1.1660925745        4.1965144350        1.5874531417
 C         -2.0985999523        3.5395722314        2.3725586059
 C         -2.6486041882        2.3451028483        1.9464579827
 C         -5.1391254651        1.4776622406        0.1419396515
 C         -6.5052620844        1.3918729583        0.3324601648
 H         -8.1329096046        0.1689047431        0.9980659898
 H         -6.6803812443       -1.7411791952        1.5765607405
 H         -4.2507063466       -1.5919469014        1.2373018375
 H         -1.3386729466       -3.0410148257        0.0200870758
 H         -2.2786803683       -5.0140003440       -1.1130396703
 H         -4.1504319410       -4.7539871699       -2.7006349059
 H         -5.0630004893       -2.5075122995       -3.1617813872
 H         -4.1239274200       -0.5374656505       -2.0315381945
 H         -0.3606952527       -1.0399129565       -2.2312550811
 H          2.0901799615       -0.9225226317       -2.1585109791
 H          2.8067349134        1.7388339863       -1.7094409104
 H          4.0457555709        2.5406341750       -3.6803125997
 H          6.2024853605        1.5088055416       -4.2951829902
 H          7.1087202026       -0.3381007340       -2.9289017276
 H          5.8688170074       -1.1441997790       -0.9620172079
 H          3.0811543787       -2.2133135022        1.5964248277
 H          4.3766212663       -2.7530119959        3.6178047351
 H          6.3217008927       -1.3717285799        4.2530961330
 H          6.9545696926        0.5645840058        2.8563535177
 H          5.6567496470        1.1106105613        0.8400986486
 H          1.9087048852        0.2373076995        1.9523172621
 H         -0.5362467298        0.1130871098        1.8765656901
 H         -1.0547755723        2.0476039348       -1.0163281894
 H         -0.0773187927        4.1719009306       -0.2557941893
 H         -0.7353632846        5.1289085395        1.9217340460
 H         -2.3987562314        3.9602849789        3.3214071926
 H         -3.3741738423        1.8319207282        2.5620128925
 H         -4.7036118536        2.3828148931       -0.2578100990
 H         -7.1357928158        2.2334064225        0.0838303833
  68
        -99.04524142
 C         -7.0966252830        0.1286223142       -0.6460467295
 C         -6.5035862274        1.3498718090       -0.3722412998
 C         -5.1274246335        1.4531243222       -0.3015428049
 C         -4.3208063566        0.3316616959       -0.4888562488
 C         -2.8568551016        0.4629916425       -0.4173314945
 C         -2.0775572479       -0.4267170030        0.2377610590
 C         -2.6472245255       -1.4889087706        1.0865772610
 C         -3.6226685964       -1.1994799931        2.0380404567
 C         -4.1244181322       -2.1965236666        2.8525990711
 C         -3.6625230415       -3.4966940060        2.7293971208
 C         -2.6878062494       -3.7932452355        1.7911852612
 C         -2.1777836129       -2.7963399745        0.9810836368
 C         -0.6102460290       -0.3878667480        0.1855112185
 C          0.0805252147       -0.1340677816       -0.9995458048
 C          1.4567147906       -0.0711755473       -1.0205080381
 C          2.1951682428       -0.2778276217        0.1462160858
 N          3.5880300152       -0.1892366751        0.1398539475
 C          4.2656606530        0.2988015649        1.2647554807
 C          5.4770973135       -0.2706945678        1.6556845855
 C          6.1473270273        0.2109453201        2.7631773522
 C          5.6211509100        1.2588418457        3.5007323604
 C          4.4177400604        1.8276547496        3.1168949294
 C          3.7438309889        1.3581295728        2.0063975623
 C          4.3212590601       -0.5571489105       -0.9947065650
 C          3.9510861950       -1.6681394255       -1.7519257991
 C          4.6794253819       -2.0200533321       -2.8716364306
 C          5.7884543880       -1.2806699724       -3.2495210520
 C          6.1644255341       -0.1802934492       -2.4966400356
 C          5.4380295285        0.1842560991       -1.3799506205
 C          1.5104389882       -0.5757508910        1.3256198545
 C          0.1338228451       -0.6276125624        1.3412974349
 C         -2.3047037318        1.6434056513       -1.1051737140
 C         -2.7197243088        1.9550865117       -2.3979527673
 C         -2.2114793572        3.0625717425       -3.0507894392
 C         -1.2949463479        3.8842726878       -2.4164820672
 C         -0.8948212387        3.5961736543       -1.1216431574
 C         -1.3948934323        2.4857423825       -0.4693339427
 C         -4.9272627876       -0.8893803638       -0.7776755493
 C         -6.3032940865       -0.9877603525       -0.8544250219
 H         -8.1722629619        0.0484573945       -0.7028294918
 H         -7.1163483029        2.2259158479       -0.2150658379
 H         -4.6659435732        2.4067131397       -0.0858766531
 H         -3.9772428540       -0.1844635022        2.1429968872
 H         -4.8779469255       -1.9581633389        3.5892612501
 H         -4.0576423498       -4.2751027665        3.3654307532
 H         -2.3207653859       -4.8048651045        1.6939943438
 H         -1.4129133452       -3.0263867949        0.2524303130
 H         -0.4693963188        0.0164329417       -1.9162595590
 H          1.9708216370        0.1465433188       -1.9450443651
 H          5.8844737505       -1.0929529035        1.0856284741
 H          7.0832683371       -0.2410709481        3.0571591604
 H          6.1455522544        1.6298750575        4.3681934829
 H          4.0035559254        2.6492950621        3.6826841947
 H          2.8096798904        1.8081723196        1.7035070017
 H          3.0921805761       -2.2513115699       -1.4533314593
 H          4.3833630114       -2.8834186496       -3.4493819405
 H          6.3559241939       -1.5602070609       -4.1242162422
 H          7.0252509243        0.4047684949       -2.7855999558
 H          5.7275751539        1.0476422069       -0.7986981854
 H          2.0679842745       -0.7633741825        2.2315947021
 H         -0.3797868288       -0.8457419828        2.2668252123
 H         -3.4342489103        1.3127827578       -2.8936784841
 H         -2.5326969321        3.2865472853       -4.0578478174
 H         -0.8983936960        4.7496970107       -2.9267986476
 H         -0.1905684154        4.2425533306       -0.6180151102
 H         -1.0873551574        2.2657538416        0.5427200717
 H         -4.3126499771       -1.7599772221       -0.9535493880
 H         -6.7602765750       -1.9401457800       -1.0812243187
  68
        -99.04442906
 C         -7.0253587363        0.6476550367       -0.2069553173
 C         -6.3384903736        0.3440978203        0.9573314037
 C         -4.9617421964        0.2296598397        0.9443573571
 C         -4.2489474183        0.4187641946       -0.2381115500
 C         -2.7810572351        0.3365984217       -0.2634109510
 C         -2.0791815357       -0.6445033446        0.3458639917
 C         -2.6921444613       -1.8475534915        0.9236031137
 C         -2.2277938357       -2.3495857133        2.1382234073
 C         -2.7865312619       -3.4878687316        2.6880458623
 C         -3.8058701556       -4.1521557914        2.0264925003
 C         -4.2585559806       -3.6745161747        0.8071705559
 C         -3.7073149547       -2.5331574639        0.2580415978
 C         -0.6104765282       -0.5527026497        0.4301831240
 C          0.1965961400       -1.5833599660       -0.0454413406
 C          1.5666271338       -1.4336801393       -0.0978028423
 C          2.1640959772       -0.2568451175        0.3520672781
 N          3.5463956114       -0.0688883721        0.2040464642
 C          4.2777397238        0.5256601223        1.2343613895
 C          3.9698342138        0.2303522825        2.5629107432
 C          4.6817458125        0.8172930208        3.5902556681
 C          5.7122914345        1.7011888420        3.3146787301
 C          6.0211973104        1.9989965534        1.9975451584
 C          5.3108689117        1.4225645977        0.9627662840
 C          4.1295812932       -0.3480073380       -1.0350825014
 C          3.3997286447       -0.1708813609       -2.2114792821
 C          3.9720445084       -0.4541753708       -3.4356965484
 C          5.2787036325       -0.9077232391       -3.5120017686
 C          6.0085451812       -1.0827863485       -2.3475789654
 C          5.4422650207       -0.8121482711       -1.1170387791
 C          1.3667365420        0.7382120546        0.9145971157
 C         -0.0031941370        0.5920459445        0.9424598162
 C         -2.1030019572        1.4184674982       -1.0020974570
 C         -1.1082877452        1.1323894124       -1.9354723038
 C         -0.4767656509        2.1505662283       -2.6228671664
 C         -0.8297936733        3.4702785730       -2.3932728147
 C         -1.8316658338        3.7638495995       -1.4836380590
 C         -2.4694479236        2.7464317293       -0.7984614674
 C         -4.9475269442        0.7411738928       -1.4002055757
 C         -6.3253237381        0.8464784629       -1.3852770813
 H         -8.1018314106        0.7346583699       -0.1946483940
 H         -6.8795169772        0.1993757087        1.8811920942
 H         -4.4278081842        0.0032781948        1.8556979176
 H         -1.4331013777       -1.8304439248        2.6556304501
 H         -2.4246131701       -3.8601085032        3.6356660255
 H         -4.2416747303       -5.0422586793        2.4558433750
 H         -5.0441834120       -4.1966284396        0.2804558013
 H         -4.0548384037       -2.1711874907       -0.6983400358
 H         -0.2619698182       -2.4920112137       -0.4093900709
 H          2.1867288037       -2.2174791435       -0.5082029063
 H          3.1703065093       -0.4634558241        2.7787247703
 H          4.4345095328        0.5775132117        4.6141385115
 H          6.2690238100        2.1558792485        4.1199625401
 H          6.8174239847        2.6936613042        1.7728771156
 H          5.5471542605        1.6677273881       -0.0623500274
 H          2.3855358503        0.1973304540       -2.1557284617
 H          3.3963129380       -0.3093345569       -4.3383657856
 H          5.7247357519       -1.1221185750       -4.4713032376
 H          7.0265897389       -1.4404072576       -2.3971401316
 H          6.0110986628       -0.9592221040       -0.2106325191
 H          1.8279536512        1.6371520309        1.2967233757
 H         -0.6178075131        1.3818741313        1.3485826805
 H         -0.8401738904        0.1037365614       -2.1272266284
 H          0.2927530743        1.9150212149       -3.3441891716
 H         -0.3304567819        4.2655900896       -2.9266904361
 H         -2.1168801546        4.7908509834       -1.3070278657
 H         -3.2484869590        2.9774175630       -0.0853578456
 H         -4.4009224163        0.8975301114       -2.3197154465
 H         -6.8549902624        1.0888854086       -2.2952706025
