104
 energy: -142.808664276969 gnorm: 0.000030411569 xtb: 6.7.1 (edcfbbe)
C            2.39664644157677       -3.02960064014271        2.35730413833851
C            3.16804890653706       -2.79808849313558        1.09320371300208
C            4.49536964918275       -3.20360675305600        1.01687520370591
C            5.25062252487912       -2.98430165894312       -0.11936341388198
C            4.68406025024898       -2.33838657498527       -1.20527366281744
C            3.36488407494069       -1.93481943715621       -1.14488227641667
C            2.59273074891415       -2.16969797259803       -0.01073602273700
C            1.18289044576262       -1.70309219044416       -0.02409405871997
C            0.93732021873955       -0.31849238703210        0.03115162573434
C            2.09323404608602        0.60399459028680        0.03143730730372
C            2.30051177019420        1.48330299202121       -1.02510018792327
C            3.40229610121081        2.31394531012243       -1.04419021476652
C            4.34231296166900        2.30467958871133       -0.01600056831300
C            5.54966780034988        3.22725583732648       -0.09203967505314
C            6.49199738721558        3.06718306120889        1.10494245795266
C            5.06613870848942        4.68431769221722       -0.13014883779526
C            6.34280936469642        2.90754398351292       -1.36811655570463
C            4.12063092221817        1.43173675591807        1.04176756406074
C            3.01889717942767        0.59591133239936        1.06562919872844
C           -0.36353608711540        0.15753248297899        0.06308625361155
C           -0.55484496192219        1.62223012541653        0.02467208844434
C           -1.25718580584650        2.19987274522692       -1.02708976982528
C           -1.39707851959455        3.57195655465416       -1.12189807802739
C           -0.84166457572864        4.42256123189516       -0.17311943938915
C           -0.97050907646217        5.93696803042290       -0.23808615161036
C           -1.67689230216015        6.43683930945793        1.03094726911783
C           -1.78020733568033        6.40985708841580       -1.44920487018683
C            0.43353648632351        6.55291406317812       -0.32988245940424
C           -0.13623261212420        3.83619093927297        0.87538837534693
C            0.01145837225841        2.46736450680218        0.97388080826169
C           -1.45538457367803       -0.74278120301086       -0.01103701331781
C           -1.19404082187986       -2.10643270043713       -0.31142015300516
C           -2.29191848110359       -2.90676966461775       -0.77631544786723
N           -2.11341661945932       -4.21420072441632       -1.19543132357274
C           -3.55679946852671       -2.37771089463036       -0.81398391473457
C           -3.87025216726760       -1.10985530823975       -0.28597556529881
C           -5.21820173223519       -0.61167705031097       -0.21679304258270
C           -6.30544165560333       -1.29352122679453       -0.79266424046913
C           -7.57978635008916       -0.78835885698003       -0.75491658171114
C           -7.82944928656784        0.43835080771254       -0.13802246514576
C           -6.79657558074877        1.12603996709451        0.44335448745114
C           -5.48392206321468        0.62154172602312        0.43164176988627
C           -4.40610172941559        1.30952357663410        1.07487573395818
N           -4.64714382107170        2.47322732548765        1.79437200329075
C           -3.12533363829321        0.85158892191865        0.92525037753083
C           -2.81533553418710       -0.30944657622027        0.18642437141469
C            0.13556087067566       -2.58976480978612       -0.21104357553942
C            0.47858819420929       -4.03149517988197       -0.25667884714613
C            1.29530923956761       -4.51221133699048       -1.27763351915122
C            1.69672507363743       -5.83480681477710       -1.30723660485570
C            1.28722012744790       -6.69553910594214       -0.30373273648848
C            0.47076998395224       -6.22735044939699        0.71041484045732
C            0.05419718389135       -4.90319422235131        0.75435291692567
C           -0.85304425632392       -4.44683753596633        1.85682737162379
H            2.01461090929622       -4.04963001180825        2.37875151661189
H            3.03929165733652       -2.89252146078893        3.22535705959668
H            1.55202733761613       -2.34848411868888        2.42881421116204
H            4.94250046766748       -3.69445241530503        1.87049195696873
H            6.28130745071201       -3.30719496287483       -0.15566720702987
H            5.26763732203477       -2.14901997257227       -2.09481243138210
H            2.91649668242955       -1.42778235141471       -1.98859847148714
H            1.59381498761472        1.50892537617818       -1.84300916938307
H            3.52651727693880        2.97943491305951       -1.88576463794007
H            7.33756069918330        3.74333985250840        0.99317513833789
H            5.98734172237647        3.31272144717275        2.03667273411811
H            6.87807722285712        2.05192235724523        1.16485115140496
H            4.49265038613341        4.91265912256190        0.76610136320143
H            4.43393665836924        4.86856796624460       -0.99434621824527
H            5.91688414923558        5.36110165592148       -0.17807742175638
H            5.74668473938770        3.08143378140039       -2.25978367226170
H            7.23094618562996        3.53385012879936       -1.42485542834905
H            6.65423274898006        1.86447866671965       -1.36441176090212
H            4.80930657142945        1.38415215453217        1.86974482671242
H            2.87477775987034       -0.06693577334186        1.90646201449508
H           -1.69849040431026        1.56335931073006       -1.78177009791128
H           -1.95099280384559        3.96688331985692       -1.95798267189826
H           -2.66885617096024        5.99544823566249        1.10602148444160
H           -1.11707474452700        6.17611465569415        1.92503782434294
H           -1.78203582857668        7.51944013102360        0.99886644117165
H           -1.30494881976461        6.10861753271705       -2.38013127112559
H           -2.79284046450664        6.01370991083877       -1.42104813809975
H           -1.84332593661341        7.49639864216723       -1.44070859337523
H            0.94859487445518        6.18146370840026       -1.21367832397592
H            0.36445563680976        7.63666372289134       -0.39965135720798
H            1.03289816601826        6.30460775028044        0.54164522955481
H            0.31576090860751        4.45416525108072        1.63718445163120
H            0.55815285782726        2.04644594779105        1.80596968425131
H           -2.88457934138259       -4.59233563454021       -1.72351732105022
H           -1.20548555517163       -4.45813833448323       -1.55469731491533
H           -4.33917646126703       -2.99841714708067       -1.22324954581038
H           -6.14334847087036       -2.23350874611554       -1.29589036847012
H           -8.39191424272465       -1.33450280010510       -1.21333081841750
H           -8.83134398703599        0.84267981258412       -0.12489179583659
H           -6.99098448507763        2.08653527891068        0.89716659277396
H           -5.52278341120168        2.50987532154969        2.29267183747681
H           -3.86339231668794        2.77470330254345        2.35423927671098
H           -2.33520800823708        1.37872206507223        1.43501350045006
H            1.60803696636549       -3.83871716155968       -2.06271074866117
H            2.33025731477885       -6.18805252244050       -2.10771179551029
H            1.60135843971007       -7.72914039918878       -0.31173956541917
H            0.15115222066321       -6.90305202741367        1.49149776597528
H           -0.68791245181252       -3.40078652769403        2.10061076929341
H           -1.89113274887962       -4.55301397554902        1.54186024370802
H           -0.70610258912661       -5.05001389362530        2.75004765488826
