  104
       -142.68853364
 C          2.2260632446       -3.2487091083        2.2748410166
 C          3.0148216054       -3.0780205639        1.0119078229
 C          4.3036528695       -3.5885934592        0.9311944810
 C          5.0725712728       -3.4211001708       -0.2051927679
 C          4.5600022189       -2.7191812943       -1.2826548374
 C          3.2782154620       -2.2093835110       -1.2169062769
 C          2.4903854035       -2.3950421076       -0.0852586045
 C          1.1207706781       -1.8264416349       -0.0854297337
 C          0.9731170386       -0.4447386785       -0.0598533878
 C          2.1527911538        0.4334590012       -0.0895123278
 C          2.2800104532        1.4031721268       -1.0816362243
 C          3.3643334744        2.2530391391       -1.1043329864
 C          4.3700227363        2.1783911789       -0.1431043882
 C          5.5267179654        3.1629725321       -0.1943099167
 C          6.5477137388        2.9351066316        0.9233443359
 C          4.9690374592        4.5863869312       -0.0520342792
 C          6.2527033733        3.0207228499       -1.5391618022
 C          4.2478896906        1.1977095754        0.8328745096
 C          3.1628030976        0.3411459442        0.8606713544
 C         -0.3272757693        0.1228667564        0.0066115613
 C         -0.4306346131        1.5910642181        0.0432415693
 C         -1.1477274371        2.2755322788       -0.9333115131
 C         -1.1732574451        3.6566631251       -0.9633461895
 C         -0.4824193121        4.4128815544       -0.0225764833
 C         -0.4436283361        5.9325815080       -0.0414787332
 C         -1.0045473834        6.4736225029        1.2813370971
 C         -1.2638852928        6.5323257952       -1.1867660690
 C          1.0145250819        6.3829363325       -0.2102754002
 C          0.2169574653        3.7224403327        0.9641516141
 C          0.2474373311        2.3440775935        0.9991179525
 C         -1.4483979529       -0.6979736470       -0.0390792312
 C         -1.2961087266       -2.0928354217       -0.3015361167
 C         -2.4311898991       -2.7970550138       -0.7666548427
 N         -2.3704456699       -4.0998836011       -1.1896927935
 C         -3.6923733134       -2.1530344095       -0.8673739510
 C         -3.9057466602       -0.8799289104       -0.4066592598
 C         -5.2087145335       -0.2361579206       -0.4064087840
 C         -6.2656296908       -0.7214693498       -1.1692277500
 C         -7.5198791664       -0.1267378643       -1.1392196559
 C         -7.7362835239        0.9773925808       -0.3330026939
 C         -6.7020002371        1.4969018160        0.4180655965
 C         -5.4179492072        0.9207215623        0.3926239565
 C         -4.3224441708        1.4511595377        1.1346075446
 N         -4.4797938206        2.5059130423        2.0025373566
 C         -3.0412466069        0.8963511810        0.9950724055
 C         -2.7898576163       -0.1795218348        0.1764456685
 C          0.0040253697       -2.6665902848       -0.1892025533
 C          0.2201032337       -4.1204907296       -0.1396685081
 C          1.0601606267       -4.7358152917       -1.0710055833
 C          1.3197114983       -6.0906405500       -1.0132964575
 C          0.7449584678       -6.8601586305       -0.0151162324
 C         -0.0873726194       -6.2609748174        0.9161256608
 C         -0.3595132289       -4.9027161801        0.8764536443
 C         -1.2541446425       -4.2898874257        1.9107962215
 H          1.7156968238       -4.2105220414        2.2679937573
 H          2.8834083782       -3.2208891785        3.1421967769
 H          1.4763711207       -2.4671687030        2.3700121278
 H          4.7116220008       -4.1200884663        1.7799193783
 H          6.0730776244       -3.8264106663       -0.2458689878
 H          5.1582617611       -2.5686071669       -2.1695160110
 H          2.8717389367       -1.6587527524       -2.0537432268
 H          1.5191387694        1.4869114125       -1.8438171761
 H          3.4202810255        2.9926105861       -1.8890299727
 H          7.3512549663        3.6638206950        0.8359066331
 H          6.0892230423        3.0561178675        1.9019211555
 H          6.9842100317        1.9415429247        0.8548305098
 H          4.4506021063        4.6906644824        0.8988862421
 H          4.2660488914        4.8151091055       -0.8476676268
 H          5.7771596787        5.3141087480       -0.0875636616
 H          5.5908274209        3.2436277351       -2.3710377463
 H          7.0990317899        3.7031137895       -1.5842946229
 H          6.6208163271        2.0039278849       -1.6592132596
 H          4.9982727382        1.0892496067        1.5990700483
 H          3.0917215329       -0.3942591131        1.6474811757
 H         -1.6815180710        1.7140524381       -1.6871785178
 H         -1.7342899593        4.1371346849       -1.7485766518
 H         -2.0362207594        6.1518113860        1.4118413605
 H         -0.4262322705        6.1207196233        2.1307510672
 H         -0.9812116623        7.5613965979        1.2825232761
 H         -0.8830880004        6.2062729868       -2.1517173882
 H         -2.3123871994        6.2542720540       -1.1059978850
 H         -1.1997241946        7.6180746213       -1.1497525949
 H          1.4200681721        5.9912374497       -1.1407644216
 H          1.0742587418        7.4690542153       -0.2363661286
 H          1.6354153692        6.0249072245        0.6058031197
 H          0.7630287915        4.2657089778        1.7209287728
 H          0.8019179508        1.8418704966        1.7782501687
 H         -3.1170132720       -4.4261609592       -1.7799192243
 H         -1.4576022687       -4.5041777843       -1.3240981963
 H         -4.5026847191       -2.7369869417       -1.2764366574
 H         -6.1151225050       -1.5726501777       -1.8147398876
 H         -8.3204913434       -0.5283925921       -1.7418011165
 H         -8.7123554481        1.4385783007       -0.2941817814
 H         -6.8973793561        2.3600956847        1.0373730740
 H         -5.2792547719        3.1054742813        1.8866854799
 H         -3.6351823371        2.9666250000        2.3012992595
 H         -2.2359718732        1.3529882541        1.5476138854
 H          1.4994382360       -4.1396915614       -1.8560703633
 H          1.9717966205       -6.5459648145       -1.7441292379
 H          0.9469781502       -7.9193374113        0.0417202565
 H         -0.5258107173       -6.8616948590        1.7010614641
 H         -1.2720715071       -4.9004651640        2.8110155676
 H         -0.9233229634       -3.2865791755        2.1659335534
 H         -2.2721274062       -4.2142684825        1.5303309884
