104
 energy: -142.737909242459 gnorm: 0.000038773315 xtb: 6.7.1 (edcfbbe)
C            2.41963946451850       -3.06871903326839        2.33171383490396
C            3.20427353624264       -2.86156393654403        1.07108212609750
C            4.52316206709494       -3.29467689958199        1.00561938685095
C            5.29214687405680       -3.09143003057314       -0.12478999417005
C            4.74783611545554       -2.43408341085096       -1.21514301345219
C            3.43638313479355       -2.00376336343121       -1.16585991791401
C            2.65009163922840       -2.22141031129902       -0.03789312416820
C            1.24919952361227       -1.73016854125682       -0.06035139420607
C            1.02421647955798       -0.35732763107755       -0.04577892827664
C            2.16287159165225        0.57551340704369       -0.05157739514326
C            2.29916770021421        1.52349359633638       -1.06301802826334
C            3.37871484524371        2.38117716800942       -1.08775119885544
C            4.36847987679703        2.34129730133507       -0.10724740484750
C            5.54168533764827        3.30687140156697       -0.18162446531183
C            6.53592387412312        3.11880260200424        0.96846310930465
C            5.01080913837719        4.74700450448698       -0.12498645741456
C            6.29285369434202        3.08068078164298       -1.50226842689265
C            4.22182480936157        1.40036297360080        0.90473349912982
C            3.14379053456606        0.53533564427512        0.93304954329463
C           -0.30663466587612        0.13753639373056       -0.01477017622159
C           -0.51334729733626        1.59602769372271       -0.01378239792686
C           -1.27928257062146        2.19480888256761       -1.01017741945378
C           -1.45796154889470        3.56399353813716       -1.05021013479147
C           -0.87949453714318        4.39727377341692       -0.09851020334959
C           -1.05479335169617        5.90845074195197       -0.09940105863052
C           -1.72772614516936        6.33471253700545        1.21413546383763
C           -1.92388925698233        6.40231183532952       -1.26011745303984
C            0.32434179404482        6.57404595306727       -0.21823612642451
C           -0.10872968130440        3.79325939736263        0.89230843572797
C            0.07801198773773        2.42658780361071        0.93526405252493
C           -1.37861024792980       -0.74841767925748       -0.06298041012687
C           -1.14574067624332       -2.13418711266762       -0.31696882704885
C           -2.23542219504100       -2.90163762851920       -0.79249332558861
N           -2.10246894540244       -4.19714667537081       -1.22264976660221
C           -3.53328436742654       -2.33239865393586       -0.89297076256831
C           -3.82240552835867       -1.07538786047166       -0.43093241564090
C           -5.16065319435314       -0.50638047720630       -0.43336371445714
C           -6.18627560001809       -1.04282196938285       -1.20562345750114
C           -7.46770370437113       -0.50805334647433       -1.18734611049282
C           -7.74137411707513        0.59377775879007       -0.39442220456769
C           -6.74069052854711        1.16122345982469        0.36808177300982
C           -5.43597858387340        0.63351342113816        0.36879513270229
C           -4.38166391120198        1.19914574503974        1.14603461585985
N           -4.60126458407709        2.26700793845840        1.98035255253668
C           -3.06590655985817        0.73917073704082        0.98401701016576
C           -2.74897367408221       -0.30805615981267        0.15015656739726
C            0.18395020530026       -2.63331338372317       -0.18430193263363
C            0.47923037462992       -4.07521063499933       -0.13130140021475
C            1.35379902910003       -4.64289625708237       -1.06170980829369
C            1.68582579152166       -5.98246005445140       -1.00904919857059
C            1.14835525450995       -6.78524568920546       -0.01621529854841
C            0.28131151830880       -6.23431384005200        0.91279017063294
C           -0.06324967275155       -4.89122984241659        0.87858101596603
C           -0.99774028019301       -4.33969108678372        1.91312808280146
H            1.99981158141181       -4.07405279846850        2.35015996066234
H            3.06303370465629       -2.95612839228851        3.20283398644015
H            1.59997478623225       -2.35716750628349        2.40022457177973
H            4.95358700250819       -3.79391407587313        1.86312569697527
H            6.31614456163407       -3.43604593255644       -0.15267178867451
H            5.34259126130816       -2.25706232724192       -2.09999322409857
H            3.00394020240482       -1.49011069387073       -2.01405257479810
H            1.55522962530223        1.57634370926637       -1.84589527530699
H            3.44542233656744        3.09539560018149       -1.89558691457228
H            7.35273557037261        3.83026036495018        0.86160227525812
H            6.06008050382736        3.29567047206536        1.93052345603607
H            6.95885579136866        2.11657508193737        0.95898458047643
H            4.46559816613331        4.90925011301420        0.80287843505868
H            4.33940581429620        4.95355291533573       -0.95387881856586
H            5.83684020903556        5.45410932510760       -0.16948253844441
H            5.65253828642169        3.27074718085642       -2.35939018215874
H            7.15221933658758        3.74554881061709       -1.56436109486585
H            6.64544224713828        2.05247596576477       -1.56183764386709
H            4.95058961749902        1.32451832202357        1.69587407515891
H            3.05741701923438       -0.17358169191864        1.74344062138115
H           -1.73853485704830        1.57397795538395       -1.76754174512571
H           -2.05888457174594        3.97257342806546       -1.84663742047418
H           -2.70161860968999        5.85785573726771        1.30716884881303
H           -1.12602837744004        6.05623297843074        2.07504067514145
H           -1.86789366432083        7.41373456392824        1.23076339019061
H           -1.47740976798961        6.14851415481372       -2.21906495944356
H           -2.92373081371054        5.97701266520766       -1.20894909457029
H           -2.01557927950808        7.48570878012049       -1.20873388416888
H            0.81334846309281        6.26096270050080       -1.13877828409655
H            0.21900668440716        7.65711682194566       -0.23406330012488
H            0.96777131951956        6.30610010947542        0.61533464245148
H            0.36427440591408        4.39630416223330        1.65368486078393
H            0.67655677410394        1.99391458060851        1.72474214593140
H           -2.83776738213124       -4.56022011627483       -1.80723013066761
H           -1.17299416883445       -4.54824875310742       -1.38861876291452
H           -4.30736104949653       -2.96184027857804       -1.30516361810425
H           -5.98902491149190       -1.88508456905708       -1.85054217549172
H           -8.24337757466938       -0.94894324182263       -1.79605386237757
H           -8.73578119116517        1.01667920025833       -0.37714612836017
H           -6.96973056587545        2.03660360063161        0.95732918138265
H           -5.53233353783184        2.42094191951321        2.32883728614820
H           -3.85193014810812        2.50690095516873        2.60907708227703
H           -2.28891021760686        1.23716370851580        1.54318979375449
H            1.76163482760680       -4.02104884185004       -1.84527209006389
H            2.36363612188027       -6.39801143493359       -1.74076759794942
H            1.40530726690926       -7.83316099729673        0.03653571140865
H           -0.13002923848118       -6.86081863002510        1.69244916663548
H           -0.76262052911369       -3.30308106130971        2.14160180054582
H           -2.02447262854550       -4.37333092238441        1.54846403496987
H           -0.94389044998290       -4.92733425714631        2.82708509179845
