  133
       -189.39312070
 C         -7.4576175087       -1.6894862625        4.2814854745
 C         -7.4898685324       -2.0755091355        2.7957464757
 C         -8.9436063234       -2.0147419291        2.3189475833
 C         -6.9936833861       -3.5181708804        2.6218897396
 C         -6.5788356296       -1.1374382048        2.0195654128
 C         -5.2122537764       -1.1128222699        2.3268576502
 C         -4.3099475338       -0.2993664841        1.6694393762
 C         -4.7878687573        0.5162838798        0.6546599168
 C         -6.1667634696        0.5379190766        0.3513342746
 C         -7.0515041935       -0.2885340185        1.0274953265
 C         -6.3396132492        1.5256815114       -0.6807182638
 C         -7.4472006847        1.9675368781       -1.3882133917
 C         -7.2944401832        2.9376304349       -2.3699452664
 C         -8.4657100637        3.4787542031       -3.1745175743
 C         -9.7978349526        2.8328464176       -2.7836187720
 C         -8.2243090038        3.2057689945       -4.6660817866
 C         -8.5794321672        4.9909767136       -2.9338031720
 C         -6.0086004881        3.4283669237       -2.6315633030
 C         -4.8884528528        3.0032251554       -1.9443008623
 C         -5.0580635161        2.0583538606       -0.9433137000
 N         -4.1271135584        1.4387385058       -0.1327221726
 C         -2.7542703891        1.6791825350       -0.1157523076
 C         -2.2805751217        3.0014279712       -0.1028766721
 C         -0.9144881337        3.2666964124       -0.0641836852
 C         -0.0366160214        2.2014157086       -0.0481863491
 C         -0.5059316096        0.8496463364       -0.1135211587
 C         -1.8775633431        0.5974158597       -0.1249538088
 C          0.6391694210        0.0178412099       -0.1579788352
 C          0.8239172421       -1.3637096236       -0.2238758202
 C          2.1234145337       -1.8634932113       -0.2030186437
 N          2.3264168506       -3.2402530910       -0.2712529945
 C          3.2480362223       -3.8872289097       -1.0714626406
 C          4.1265254406       -3.3794146193       -2.0166216535
 C          4.9219778741       -4.2719501667       -2.7086897793
 C          4.8684116365       -5.6566803268       -2.5035167750
 C          5.7982896027       -6.5545308269       -3.3043247878
 C          5.5110054530       -6.3719617767       -4.8014970984
 C          7.2523532749       -6.1646024052       -3.0019369953
 C          5.6239292645       -8.0371679307       -2.9639247134
 C          3.9586131262       -6.1562355504       -1.5810418651
 C          3.1489603877       -5.2818022752       -0.8718011093
 C          2.1138966186       -5.4801561648        0.1076158657
 C          1.5877520873       -6.6129956514        0.7102392323
 C          0.5860756286       -6.4833083186        1.6631169799
 C         -0.0468324284       -7.6817689581        2.3529209128
 C         -1.5583653342       -7.6756173106        2.0826483026
 C          0.2120888024       -7.5881090168        3.8635185171
 C          0.5180294282       -9.0150715220        1.8553373174
 C          0.1542248198       -5.1965227247        2.0093421262
 C          0.6632351533       -4.0518616932        1.4266364195
 C          1.6341666797       -4.1959666258        0.4470252757
 C          3.2330986514       -1.0068271279       -0.1065949826
 C          3.0628620025        0.3736285870       -0.0507850172
 C          1.7800589217        0.8808004490       -0.1017530055
 N          1.3445336342        2.1898399961       -0.0451481133
 C          2.1673082180        3.3107379766       -0.0111089183
 C          1.9124866298        4.3519848391        0.8999496778
 C          2.7288591720        5.4556801370        0.9290247528
 C          3.8004318794        5.5525785218        0.0437227692
 S          4.9083345678        6.9369565297        0.1544115707
 O          5.5959943070        7.0901563993       -1.1036853776
 O          4.1952802269        8.0696221469        0.6906192836
 C          6.0774490562        6.3584323753        1.3814919062
 C          5.8268914740        6.5893020333        2.7232854223
 C          6.6889223739        6.0712160469        3.6725475886
 C          7.7878196001        5.3221093545        3.2755413718
 C          8.0298354412        5.0951382415        1.9276522941
 C          7.1701687167        5.6114490370        0.9755380425
 C          4.0666452449        4.5255816733       -0.8593792396
 C          3.2608635603        3.4140759844       -0.8901467652
 H         -8.1148076438       -2.3423741422        4.8518307418
 H         -6.4550987182       -1.7726355565        4.6917065915
 H         -7.7938514676       -0.6628469991        4.4100901365
 H         -9.3623213054       -1.0215049091        2.4626844964
 H         -9.0219082096       -2.2879990898        1.2691969450
 H         -9.5435046531       -2.7166952872        2.8946495879
 H         -6.9862863876       -3.7886293922        1.5680817563
 H         -7.6513439550       -4.2052884081        3.1498395348
 H         -5.9881754087       -3.6439091275        3.0128910216
 H         -4.8353527719       -1.7473426510        3.1140368586
 H         -3.2685882719       -0.2924991244        1.9526346402
 H         -8.0965096490       -0.2485942133        0.7702276248
 H         -8.4096621817        1.5403190422       -1.1621478352
 H        -10.0319550378        3.0192171597       -1.7380553640
 H        -10.5969877658        3.2588847739       -3.3867599403
 H         -9.7798649702        1.7599844016       -2.9612867562
 H         -9.0680809863        3.5635374441       -5.2521937385
 H         -7.3280507698        3.7049987417       -5.0228488571
 H         -8.1114934908        2.1375209816       -4.8393323027
 H         -9.4229583707        5.3957862432       -3.4888488829
 H         -8.7336429527        5.1922949510       -1.8756798348
 H         -7.6812012859        5.5125012420       -3.2519933484
 H         -5.8717210756        4.1678440859       -3.4051699690
 H         -3.9123825143        3.3890996445       -2.1940061893
 H         -2.9858120821        3.8155343768       -0.0765332887
 H         -0.5650121820        4.2866513719       -0.0487466347
 H         -2.2525417255       -0.4111464044       -0.1971941273
 H         -0.0178860672       -2.0278224999       -0.3382481438
 H          4.1828314656       -2.3214020682       -2.2203580862
 H          5.6069718832       -3.8713165827       -3.4396844538
 H          5.6890490198       -5.3485766071       -5.1192040808
 H          4.4742127233       -6.6206246721       -5.0183355046
 H          6.1529248555       -7.0263320201       -5.3873321493
 H          7.4576214152       -6.2758331520       -1.9392582321
 H          7.9345101458       -6.8070684210       -3.5544947667
 H          7.4543065878       -5.1346106360       -3.2815630499
 H          6.3193667913       -8.6282872403       -3.5562154338
 H          5.8344711113       -8.2252538662       -1.9136505383
 H          4.6165118726       -8.3762401139       -3.1938904635
 H          3.8589248425       -7.2136951557       -1.4028572543
 H          1.9751066407       -7.5769806466        0.4265634469
 H         -1.7486928535       -7.7244593756        1.0124722069
 H         -2.0261243286       -8.5361903093        2.5560171045
 H         -2.0292599844       -6.7770750053        2.4711714333
 H         -0.2180584729       -8.4491595192        4.3704940393
 H         -0.2272504495       -6.6896737245        4.2874575007
 H          1.2818059892       -7.5700294232        4.0609980284
 H          1.5835124715       -9.0902187239        2.0596851484
 H          0.0201315580       -9.8340539859        2.3705055784
 H          0.3484210837       -9.1378446320        0.7881106928
 H         -0.6046159309       -5.0790005978        2.7674032516
 H          0.3210281658       -3.0777233609        1.7404406284
 H          4.2204443628       -1.4304971327       -0.0237123656
 H          3.9190497170        1.0201550892        0.0631165674
 H          1.0940901854        4.2546197392        1.5969234714
 H          2.5539490214        6.2679702021        1.6162171752
 H          4.9727325157        7.1885377294        2.9967111862
 H          6.5093947423        6.2519265808        4.7220779601
 H          8.4611954667        4.9200137449        4.0179687987
 H          8.8909058340        4.5186289123        1.6233052382
 H          7.3366193622        5.4673876056       -0.0803908790
 H          4.8916493011        4.6442644645       -1.5434835069
 H          3.4281686920        2.6324052189       -1.6156236763
