  133
       -189.48645433
 C         -7.3570561791       -1.2426260180        4.2990150529
 C         -7.4818350410       -1.5461802318        2.7993213139
 C         -8.9416066858       -1.3296261237        2.3912713112
 C         -7.1276297146       -3.0166911864        2.5349309935
 C         -6.5203466939       -0.6575564863        2.0232899714
 C         -5.1483644998       -0.7484449271        2.2945695174
 C         -4.2003762488        0.0000139326        1.6276952180
 C         -4.6341504272        0.8702960899        0.6394056886
 C         -6.0120197460        1.0056077801        0.3702519477
 C         -6.9448953121        0.2408370425        1.0587853462
 C         -6.1297795544        2.0036290565       -0.6563815698
 C         -7.2177608601        2.5421011403       -1.3309383872
 C         -7.0135882796        3.4923611947       -2.3173311265
 C         -8.1572989378        4.1312330895       -3.0917999073
 C         -9.5296996719        3.6278001797       -2.6360335741
 C         -8.0012398767        3.8041166444       -4.5836198516
 C         -8.1173758345        5.6520393095       -2.8857849668
 C         -5.6981571132        3.8695088518       -2.6201448882
 C         -4.5991962685        3.3523816381       -1.9653899506
 C         -4.8175732258        2.4244086602       -0.9587393701
 N         -3.9193287567        1.7359173167       -0.1663380589
 C         -2.5254114857        1.8594698863       -0.1912821922
 C         -1.9362225532        3.1300838967       -0.1590173631
 C         -0.5654622937        3.2922368917       -0.1756898270
 C          0.2282819901        2.1541106040       -0.1905250200
 C         -0.3567835304        0.8693394643       -0.2394463041
 C         -1.7342053990        0.7204631569       -0.2495017646
 C          0.7251056063       -0.0730354061       -0.2871635667
 C          0.7655976619       -1.4578231827       -0.3129498683
 C          2.0033600405       -2.0852080011       -0.3018360659
 N          2.0728786586       -3.4838704685       -0.2999085565
 C          2.8345352943       -4.2664116148       -1.1447463875
 C          3.6794508134       -3.9047089444       -2.1824556033
 C          4.3035555203       -4.9111331737       -2.8905763276
 C          4.1122387318       -6.2712154992       -2.6112514843
 C          4.8516325270       -7.3036886586       -3.4500882322
 C          4.4521301712       -7.1384229461       -4.9232067219
 C          6.3637054532       -7.0890760412       -3.2935714900
 C          4.5306027337       -8.7410617363       -3.0310546843
 C          3.2489778463       -6.6207773827       -1.5863649407
 C          2.6079789223       -5.6286766999       -0.8558776838
 C          1.6620194398       -5.6643027736        0.2249228166
 C          1.0752118962       -6.7021770148        0.9376575651
 C          0.1928389631       -6.4173783275        1.9662853222
 C         -0.4928330554       -7.5019004434        2.7849337037
 C         -2.0149463426       -7.3307705230        2.6781497532
 C         -0.0564976109       -7.3759224106        4.2515532614
 C         -0.1422338569       -8.9124338678        2.3032819013
 C         -0.0670036436       -5.0745544336        2.2725522986
 C          0.4989379711       -4.0241768076        1.5799636856
 C          1.3578222489       -4.3220002875        0.5332333925
 C          3.1819421874       -1.3292676192       -0.2665004476
 C          3.1549876862        0.0507833372       -0.2582398645
 C          1.9190862615        0.6818827049       -0.2799809225
 N          1.6071436768        2.0291833317       -0.2217426681
 C          2.5238553145        3.0809636925       -0.1931992584
 C          2.3816247358        4.1070679263        0.7431145864
 C          3.2834978330        5.1529669792        0.7618692272
 C          4.3276958441        5.1696509298       -0.1438938204
 S          5.5128309660        6.5177767096       -0.0747118834
 O          6.4172521385        6.3839659225       -1.1855474495
 O          4.7964957314        7.7552974855        0.0848110136
 C          6.3959976515        6.1644538797        1.4501181834
 C          6.1442987234        6.9197106500        2.5780342303
 C          6.8029660905        6.6121683144        3.7574674167
 C          7.6974104371        5.5539677831        3.7917109797
 C          7.9422094144        4.8029086243        2.6519026636
 C          7.2857945074        5.1079830007        1.4714259216
 C          4.4869443870        4.1566682545       -1.0698546325
 C          3.5819642820        3.1128690505       -1.1023842207
 H         -8.0551241293       -1.8560577095        4.8652008656
 H         -6.3540521329       -1.4455337879        4.6637082145
 H         -7.5835178974       -0.1956477732        4.4899373605
 H         -9.2542081079       -0.3060792925        2.5845740307
 H         -9.0909122087       -1.5563386037        1.3382006768
 H         -9.5822493138       -1.9913247846        2.9712504577
 H         -7.1982552067       -3.2338652478        1.4710060406
 H         -7.8153544381       -3.6706538196        3.0673819176
 H         -6.1174834113       -3.2469642924        2.8619516518
 H         -4.8040880949       -1.4299761936        3.0576377491
 H         -3.1542717781       -0.0884951187        1.8808084275
 H         -7.9885082340        0.3672276495        0.8237299687
 H         -8.2055181084        2.1998074483       -1.0708171388
 H         -9.6981599152        3.8500871173       -1.5848527066
 H        -10.3076930181        4.1236761139       -3.2133435205
 H         -9.6262610459        2.5563204607       -2.7949264817
 H         -8.8206061441        4.2403558077       -5.1512677223
 H         -7.0677464468        4.1936914340       -4.9801128256
 H         -8.0113160442        2.7265004204       -4.7344157456
 H         -8.9385757763        6.1250717310       -3.4205941438
 H         -8.2115957335        5.8899437483       -1.8283169012
 H         -7.1864353036        6.0778910493       -3.2486668012
 H         -5.5218608810        4.5927558516       -3.4018792838
 H         -3.6014415834        3.6559668660       -2.2451823592
 H         -2.5752275582        3.9981675198       -0.1093187923
 H         -0.1330997791        4.2808110922       -0.1785351716
 H         -2.1847705837       -0.2570909923       -0.3185805154
 H         -0.1430165251       -2.0383547309       -0.3431659547
 H          3.8394280456       -2.8687024317       -2.4419566051
 H          4.9631961054       -4.6243377154       -3.6954828345
 H          4.7225125648       -6.1563780200       -5.3008449036
 H          3.3770751950       -7.2624438874       -5.0364826462
 H          4.9526718283       -7.8869748334       -5.5341410671
 H          6.6507430938       -7.1901812701       -2.2488323543
 H          6.9102059339       -7.8287664926       -3.8751779294
 H          6.6615906790       -6.1012971759       -3.6340756076
 H          5.0859189991       -9.4346390573       -3.6595872771
 H          4.8180284630       -8.9209725778       -1.9976934687
 H          3.4709965854       -8.9554255903       -3.1499726516
 H          3.0526992052       -7.6505974036       -1.3386659843
 H          1.3267478265       -7.7155594845        0.6727204605
 H         -2.3273456472       -7.3891019709        1.6374735625
 H         -2.5206124734       -8.1168954590        3.2352579867
 H         -2.3369389698       -6.3728316434        3.0765878697
 H          1.0235222935       -7.4810041216        4.3321152650
 H         -0.5250995138       -8.1536951926        4.8511759396
 H         -0.3358609023       -6.4114098692        4.6663688326
 H          0.9237666918       -9.1055385846        2.3988650079
 H         -0.6709198930       -9.6450541229        2.9099968441
 H         -0.4398647060       -9.0558900376        1.2670581649
 H         -0.7349264361       -4.8374667146        3.0867451312
 H          0.2847259970       -3.0029664834        1.8585597235
 H          4.1284543475       -1.8462003074       -0.2245557921
 H          4.0736979628        0.6147619314       -0.2083954711
 H          1.5750637863        4.0666108472        1.4588433432
 H          3.1859355395        5.9623682038        1.4680683179
 H          5.4505655062        7.7430109462        2.5076161584
 H          6.6208285873        7.1969286320        4.6463588905
 H          8.2111256788        5.3152502792        4.7111196537
 H          8.6446709548        3.9838290188        2.6839874033
 H          7.4638804099        4.5525001562        0.5639495500
 H          5.3068195118        4.2175445603       -1.7682840171
 H          3.6718990510        2.3329872615       -1.8428607828
