61
 energy: -97.396400952233 gnorm: 0.000146536558 xtb: 6.7.1 (edcfbbe)
C           -4.05401896692504        3.99183901088412        1.20501293029327
C           -3.02383053277169        3.21808354944172        1.73164168576784
C           -2.86803855396598        1.88807582332419        1.37928679265986
C           -3.76537207833516        1.34995664511743        0.46805437083932
C           -4.83428852688166        2.12182271248853       -0.04782701585455
C           -4.97254205173119        3.45206096124796        0.32231023532164
C           -5.59497774669093        1.24793148870498       -0.89786730170059
C           -6.72116953961408        1.42795095727930       -1.68814854327693
C           -7.18880732756400        0.35580882402170       -2.42710858840555
C           -6.53815284440639       -0.87434185828911       -2.39832846087310
C           -5.41261527197579       -1.07718035963219       -1.61794514817156
C           -4.95643167632429       -0.01498461782274       -0.85082964058167
N           -3.85275470316035        0.06236006752659       -0.02423868621723
C           -2.97167724933879       -0.97979957385691        0.26724725175465
C           -3.48745356787380       -2.23896028516399        0.62053923775627
C           -2.60792961242469       -3.28239053846158        0.92221751608420
C           -1.25660094905311       -3.05596669385469        0.85468272629092
S            0.00005224988368       -4.23343495188845        1.17984060549056
C            1.25679588631352       -3.05578960954013        0.85566447070578
C            2.60811288976505       -3.28203113908026        0.92424532991618
C            3.48771749357765       -2.23845694957075        0.62333937879090
C            2.97206200146845       -0.97932779850113        0.26979490858287
N            3.85321191241906        0.06301872367896       -0.02079391156299
C            3.76532594248803        1.35047025289253        0.47178019923122
C            2.86723600263809        1.88824808146848        1.38247862504456
C            3.02264296990405        3.21815938127017        1.73534900763721
C            4.05316173901596        3.99216610659766        1.20974225589927
C            4.97239917355330        3.45273393671693        0.32755980039307
C            4.83455506062451        2.12260132983422       -0.04306732329363
C            5.59599175739837        1.24901247883070       -0.89277239133726
C            6.72276063247153        1.42935632732463       -1.68213726713292
C            7.19107034037548        0.35745625601488       -2.42103663060153
C            6.54051615836618       -0.87276608658833       -2.39308046375965
C            5.41440890179401       -1.07592865697144       -1.61361333212329
C            4.95752287916589       -0.01397994308079       -0.84656442280321
C            1.60532234636268       -0.74677180579859        0.20170688527183
C            0.70366140667062       -1.78794875860589        0.49108788628338
C           -0.70334514829649       -1.78805486093076        0.49050263599930
C           -1.60493497915747       -0.74704603421082        0.20025752757806
H           -4.14243675154197        5.02615878569083        1.50229355199042
H           -2.33475696617394        3.66151320600377        2.43463045787855
H           -2.08192083295203        1.28870396150536        1.81180293076445
H           -5.78366583550474        4.04774919523932       -0.06773574142974
H           -7.21508381457772        2.38683972316035       -1.72779300709835
H           -8.06543387128740        0.47506549875774       -3.04621901706593
H           -6.91518148311709       -1.68698871390777       -3.00085459356757
H           -4.90091295708803       -2.02694709346868       -1.61889558339124
H           -4.55116142113142       -2.37860447741887        0.71330386775012
H           -2.99122045022161       -4.24592430881871        1.21975738602965
H            2.99129546249794       -4.24553287847195        1.22203584435998
H            4.55138155593340       -2.37796410662539        0.71689492021983
H            2.08083511759037        1.28866775042435        1.81419747018437
H            2.33297858033436        3.66132853227305        2.43792831339262
H            4.14125604959002        5.02641033424564        1.50738897970061
H            5.78376673162637        4.04862305424137       -0.06168422450686
H            7.21658549214630        2.38831841615689       -1.72119728145632
H            8.06811827944436        0.47698985519412       -3.03950108469906
H            6.91809146282380       -1.68521250435108       -2.99554150493414
H            4.90282559374354       -2.02576185763691       -1.61515430997199
H            1.23309683660146        0.21101170493321       -0.12610564359127
H           -1.23256683437227        0.21073279767758       -0.12740948255180
