  61
        -97.49467631
 C         -4.0969587726        3.9827293271        1.2305304937
 C         -3.0572400252        3.2150045942        1.7502184703
 C         -2.8834057428        1.8936789475        1.3850154458
 C         -3.7754504711        1.3509577757        0.4714428919
 C         -4.8472702281        2.1155305736       -0.0432008815
 C         -5.0020330545        3.4413572944        0.3397376423
 C         -5.5913190655        1.2448970496       -0.9097935084
 C         -6.7181129593        1.4214395604       -1.7017793313
 C         -7.1738063241        0.3551903044       -2.4507686478
 C         -6.5113274976       -0.8700292481       -2.4292481012
 C         -5.3878073668       -1.0696883095       -1.6499106278
 C         -4.9402891499       -0.0093839890       -0.8752602091
 N         -3.8443014196        0.0683081345       -0.0379781009
 C         -2.9605664561       -0.9763684702        0.2598835965
 C         -3.4640881646       -2.2193766411        0.6617779191
 C         -2.6124337190       -3.2600520063        0.9667703415
 C         -1.2451553787       -3.0488589148        0.8844043963
 S          0.0000933821       -4.2220569198        1.2470348671
 C          1.2442197854       -3.0490767994        0.8801164227
 C          2.6117382179       -3.2603113006        0.9581574960
 C          3.4624904135       -2.2195281333        0.6510064635
 C          2.9578637230       -0.9766533897        0.2499130191
 N          3.8403320626        0.0691452138       -0.0476852260
 C          3.7707545305        1.3501682657        0.4662552968
 C          2.8745636144        1.8911625909        1.3768016644
 C          3.0491685787        3.2104048648        1.7485815163
 C          4.0933524706        3.9779868381        1.2381727434
 C          5.0019933002        3.4385807776        0.3499911270
 C          4.8466716440        2.1147972906       -0.0394495091
 C          5.5944065994        1.2459889661       -0.9046819406
 C          6.7265177965        1.4234660985       -1.6887569759
 C          7.1855793889        0.3589744899       -2.4381879017
 C          6.5214737174       -0.8654473600       -2.4247335271
 C          5.3929545600       -1.0661551283       -1.6531735287
 C          4.9416703192       -0.0075966705       -0.8780632814
 C          1.5886087845       -0.7730520342        0.1600828105
 C          0.7189044103       -1.8063795759        0.4865169025
 C         -0.7209913899       -1.8061138391        0.4893941874
 C         -1.5916528934       -0.7722605876        0.1672521961
 H         -4.1977978556        5.0124175248        1.5394301853
 H         -2.3727307043        3.6615449174        2.4566348791
 H         -2.0853804408        1.3027983458        1.8092499301
 H         -5.8172405221        4.0312210895       -0.0512886003
 H         -7.2219085110        2.3756986028       -1.7301686673
 H         -8.0495058312        0.4705038840       -3.0717751223
 H         -6.8814408436       -1.6812733655       -3.0386771615
 H         -4.8714355027       -2.0179003972       -1.6548844881
 H         -4.5315633438       -2.3515442056        0.7469027667
 H         -2.9986206114       -4.2183865918        1.2761708326
 H          2.9989542915       -4.2182356520        1.2680498437
 H          4.5302313512       -2.3513727986        0.7343787164
 H          2.0737203654        1.3000712558        1.7951134196
 H          2.3627064609        3.6547029542        2.4541257926
 H          4.1946725022        5.0060550746        1.5522806414
 H          5.8212443427        4.0279199954       -0.0331355644
 H          7.2314083474        2.3774464214       -1.7111658081
 H          8.0659139171        0.4747951847       -3.0526122216
 H          6.8943757791       -1.6752638924       -3.0343548372
 H          4.8747602570       -2.0133064174       -1.6653502325
 H          1.2038728615        0.1792826822       -0.1706618177
 H         -1.2080721351        0.1805943712       -0.1634558216
