61
 energy: -97.494690514270 gnorm: 0.000034250918 xtb: 6.7.1 (edcfbbe)
C           -4.08832932150819        3.98537031873535        1.22501480271343
C           -3.04926133832794        3.21721221474913        1.74521351183738
C           -2.87763290375445        1.89490950929621        1.38271665440111
C           -3.77120729605268        1.35133768360080        0.47103492353272
C           -4.84283495466615        2.11636347196374       -0.04340620114735
C           -4.99527342318688        3.44322216584992        0.33672621103906
C           -5.58903915190102        1.24535074914644       -0.90776966149082
C           -6.71728161466157        1.42202711856306       -1.69772827456019
C           -7.17460241683723        0.35575339991189       -2.44572642964963
C           -6.51224443038528       -0.86957379810676       -2.42530281982450
C           -5.38795138418191       -1.06963873817585       -1.64731083883435
C           -4.93898496935434       -0.00944501795833       -0.87309142001373
N           -3.84204415903484        0.06793997655372       -0.03668921453352
C           -2.95877065070554       -0.97751024451720        0.25917947699356
C           -3.46295189018555       -2.22295352915591        0.65298071130502
C           -2.61199681810352       -3.26588584406555        0.95215250375986
C           -1.24455937420331       -3.05429130996770        0.87386541446986
S            0.00001586002649       -4.23021910052334        1.22987620293678
C            1.24474605327707       -3.05426128696838        0.87450106697638
C            2.61214791233367       -3.26582815228217        0.95349080450850
C            3.46324237368849       -2.22279581571733        0.65506240721957
C            2.95923173377863       -0.97724614675433        0.26139067500230
N            3.84258000325680        0.06846075986833       -0.03334190070895
C            3.77126511385904        1.35152097436499        0.47516088256475
C            2.87703576416671        1.89439179631273        1.38661855274039
C            3.04826380661716        3.21648044293592        1.75007047302969
C            4.08756019034118        3.98510610859855        1.23101809532502
C            4.99516214558912        3.44363323725823        0.34299215024665
C            4.84313221729952        2.11700173034988       -0.03809547547443
C            5.58999195190912        1.24663060356270       -0.90253789361984
C            6.71869612365164        1.42394754677165       -1.69169417938797
C            7.17660666545049        0.35820283430896       -2.44008134616828
C            6.51438407746120       -0.86722132938067       -2.42085299068172
C            5.38964419920047       -1.06792210731027       -1.64367855191345
C            4.94007106879479       -0.00826545724750       -0.86907277677444
C            1.59009623707376       -0.77274033118672        0.17223560539303
C            0.72009168642706       -1.80858026447574        0.48952987045430
C           -0.71973410518037       -1.80864622848903        0.48903352734867
C           -1.58959131157090       -0.77294013603211        0.17088532303192
H           -4.18691885634823        5.01612905441343        1.53127380660039
H           -2.36408825050331        3.66383184241140        2.45062179893671
H           -2.08073885918733        1.30374895788241        1.80855938080827
H           -5.81064382594316        4.03297165744984       -0.05410728671662
H           -7.22003068946969        2.37693863423988       -1.72630123766313
H           -8.05186823525509        0.47091638191172       -3.06470055875817
H           -6.88321645900677       -1.68077860077851       -3.03427347620553
H           -4.87122736175896       -2.01762108178686       -1.65423117981669
H           -4.53059145162191       -2.35543412818391        0.73665037902420
H           -2.99901376930539       -4.22614492137621        1.25496144732668
H            2.99902838341507       -4.22614474859229        1.25629734180070
H            4.53083862781691       -2.35527310915195        0.73930461590038
H            2.07991841800142        1.30286400339467        1.81153397363330
H            2.36257359967042        3.66256789641425        2.45531126245995
H            4.18582669719572        5.01567431663135        1.53801759449169
H            5.81071237901885        4.03372834603278       -0.04694086242206
H            7.22133969127164        2.37894283533929       -1.71934807920046
H            8.05422495927873        0.47386674136055       -3.05846244383947
H            6.88585747585155       -1.67799618290597       -3.03009015202530
H            4.87306287293175       -2.01597677227632       -1.65145139691452
H            1.20565314086003        0.18184691647290       -0.15224717563694
H           -1.20497827881425        0.18158310241609       -0.15358829344335
