  45
        -74.85298496
 C         -3.6399773524        1.3219386323       -1.1341091588
 C         -4.4212492418        0.3996220895       -0.4132398796
 C         -3.8723014766       -0.8002806055        0.0181401928
 C         -2.5611980121       -1.1367829250       -0.2487931284
 C         -1.9349160630       -2.3766428525        0.0927601994
 C         -2.6251717093       -3.5439196650        0.4302155167
 C         -1.9268078112       -4.7181077991        0.6390366915
 C         -0.5428152687       -4.7030954712        0.4730926299
 N          0.1449239372       -3.6169699800        0.2006465554
 C         -0.5077703486       -2.4590364623        0.0419395988
 C          0.2804817841       -1.2690973653       -0.1019401136
 C          1.6567581499       -1.2879465276       -0.0382413313
 C          2.3943297007       -0.1022923697       -0.0907670104
 C          3.8305563906       -0.0914242721       -0.0779207494
 C          4.7407284601       -1.1432006059       -0.0957961289
 N          5.9468021572       -0.5347542597       -0.0744427984
 N          5.8001646331        0.7873640311       -0.0456466475
 N          4.5570838552        1.0613443183       -0.0485226712
 C          1.6711513684        1.1097930735       -0.0561156582
 C          0.3028677557        1.1182784131       -0.0862851407
 C         -0.4242972876        2.3422503026        0.2198216916
 C         -1.6004384111        2.2981345223        0.9824606957
 C         -2.2364954446        3.4857298032        1.2867043904
 C         -1.6923652721        4.6775769037        0.8281102319
 C         -0.5088057274        4.6175239361        0.1047360318
 N          0.1101915191        3.4932728535       -0.1919555712
 N         -0.3978921871       -0.0603195746       -0.2511884908
 C         -1.6669731404       -0.1807273317       -0.9938467300
 C         -2.3257564011        1.0951444742       -1.3779234594
 H         -4.0942168528        2.2413284708       -1.4728233005
 H         -5.4516862231        0.6294435427       -0.1946150260
 H         -4.4883986570       -1.4824941606        0.5850473895
 H         -3.7033724275       -3.5359748920        0.4898788470
 H         -2.4387721337       -5.6327007704        0.8926259380
 H          0.0391688660       -5.6105025629        0.5704386523
 H          2.1306135155       -2.2488403771        0.0705740119
 H          4.6228058099       -2.2046869257       -0.1220454261
 H          6.8635668184       -0.9559681725       -0.0777224090
 H          2.1998611506        2.0407479310        0.0555615258
 H         -1.9719464980        1.3563838855        1.3544759007
 H         -3.1418243722        3.4841687971        1.8767362490
 H         -2.1636534838        5.6247836966        1.0371299965
 H         -0.0308123588        5.5174730586       -0.2602492504
 H         -1.3756533685       -0.6787300484       -1.9450660655
 H         -1.7301953974        1.7993428406       -1.9377681760
