  57
  -92.7242614523000       0.657643864447767      !
 C         -6.8506236739       -3.6314801998       -0.1820819548
 O         -5.4799655826       -3.9516365288       -0.2631806903
 C         -4.5635476674       -2.9609365539       -0.2127705335
 C         -3.2232945920       -3.3842058304       -0.3136101145
 C         -2.1768483181       -2.4921640354       -0.2656464594
 C         -2.4711321939       -1.1420423636       -0.1025591867
 C         -3.8182351168       -0.6980995375       -0.0432929535
 C         -4.8657484643       -1.6056125165       -0.0892152240
 C         -3.7694083085        0.7346921667        0.0461258588
 C         -4.7509302596        1.7098108630        0.1429315873
 C         -4.3532459474        3.0412806164        0.2564730392
 O         -5.1971946059        4.0909771192        0.3537938079
 C         -6.5886992319        3.8648051982        0.3419447110
 C         -2.9846147268        3.3739253476        0.2964617099
 C         -2.0036180404        2.4146237282        0.1976617796
 C         -2.3951892800        1.0883224238        0.0433702650
 N         -1.6287074199       -0.0533129337       -0.0491793753
 C         -0.2447536082       -0.0865453739       -0.0756791053
 C          0.4741222402       -1.0259353602        0.6908695811
 C          1.8382634150       -1.0225740738        0.6974779364
 C          2.5865264947       -0.0818007287       -0.0632512209
 C          4.0054887868       -0.0410108024       -0.0227312518
 C          4.7420042267        1.1813751707       -0.2077326879
 C          4.1225284758        2.4330549177       -0.3139435036
 N          3.6871852739        3.4999327075       -0.3676416562
 C          6.1352654644        1.1748787542       -0.1570418857
 C          6.9306474720        2.4304404345       -0.3240236506
 N          6.8261772050        0.0610859334        0.0565292247
 C          6.2056969461       -1.0987640642        0.2374913132
 C          7.0799496835       -2.2923458937        0.4571366655
 C          4.8153549792       -1.2064916650        0.2121477571
 C          4.2832723486       -2.4982564924        0.3064839259
 N          3.9226781795       -3.5926008562        0.3599411492
 C          1.8411467017        0.8314563781       -0.8601228758
 C          0.4779887487        0.8337877951       -0.8615748170
 H         -7.1632015104       -2.9959505656       -1.0163300370
 H         -7.3767516301       -4.5826871501       -0.2373015447
 H         -7.0912555234       -3.1388078844        0.7649782639
 H         -3.0424762247       -4.4393032827       -0.4375025486
 H         -1.1600306320       -2.8353966729       -0.3695053280
 H         -5.8831671742       -1.2529369851       -0.0359789281
 H         -5.7911692501        1.4263622319        0.1367711938
 H         -7.0453113767        4.8491449811        0.4272802975
 H         -6.9006058502        3.2462694858        1.1891402041
 H         -6.9101335015        3.3960344501       -0.5931810744
 H         -2.7278398180        4.4135873841        0.4161235076
 H         -0.9625216088        2.6883468687        0.2572691604
 H         -0.0676142653       -1.7025337835        1.3343096132
 H          2.3607546932       -1.7085310072        1.3429435090
 H          6.6849021582        3.1415287131        0.4639017380
 H          6.7021576484        2.9044448429       -1.2775103757
 H          7.9898134906        2.1941086008       -0.2795724770
 H          6.8148834453       -2.7969167225        1.3850749713
 H          8.1179806325       -1.9748851587        0.4977437488
 H          6.9532160579       -3.0081126123       -0.3545577665
 H          2.3674033742        1.5022169877       -1.5186537010
 H         -0.0621696660        1.4986171106       -1.5186403675
  57
  -92.7230519074000       0.182861561431612      !
 C         -6.7807161551       -3.4225402501       -1.3799255488
 O         -5.4024315426       -3.6813542390       -1.5268267501
 C         -4.5074510483       -2.7454615517       -1.1437789188
 C         -3.1574858384       -3.0965539616       -1.3421768093
 C         -2.1305127090       -2.2519520509       -0.9890665769
 C         -2.4544115530       -1.0274044581       -0.4132801920
 C         -3.8106773787       -0.6436176536       -0.2487608561
 C         -4.8388149975       -1.5032776124       -0.6042603161
 C         -3.7917463357        0.6884668639        0.2890286433
 C         -4.7944349547        1.5701840344        0.6630164726
 C         -4.4263611563        2.8038161270        1.1982922331
 O         -5.2932354431        3.7589705312        1.5977907940
 C         -6.6793550561        3.5309540190        1.4760300050
 C         -3.0657844897        3.1245323017        1.3745637050
 C         -2.0640720050        2.2582133723        1.0025485912
 C         -2.4249791833        1.0425058367        0.4299555634
 N         -1.6344046610       -0.0008175233        0.0007037367
 C         -0.2481547175       -0.0118322710       -0.0128860174
 C          0.4696990788       -1.1343259483        0.4454895048
 C          1.8338748133       -1.1332849017        0.4533480943
 C          2.5849471128       -0.0244087386       -0.0272580510
 C          4.0057403870       -0.0271438905       -0.0268157837
 C          4.7844937211        0.7148212794       -0.9842326145
 C          4.2237979074        1.3926850185       -2.0743813559
 N          3.8492038172        1.9430555240       -3.0163447863
 C          6.1777906573        0.6814452164       -0.9335114637
 C          7.0169662858        1.4259136208       -1.9228835601
 N          6.8317442964       -0.0206276102       -0.0160883570
 C          6.1738274772       -0.7275201524        0.8950058503
 C          7.0088542699       -1.4684207248        1.8906088536
 C          4.7803178082       -0.7684752121        0.9342028801
 C          4.2156441249       -1.4547462211        2.0171412657
 N          3.8409355365       -2.0136772109        2.9540356842
 C          1.8392971336        1.0890139261       -0.5055939028
 C          0.4754983626        1.1021524769       -0.4832562432
 H         -7.0917417667       -2.5599538885       -1.9773122485
 H         -7.2862147200       -4.3146042034       -1.7452278309
 H         -7.0475468108       -3.2586824447       -0.3312979362
 H         -2.9534551469       -4.0551149156       -1.7904299267
 H         -1.1050286559       -2.5298069726       -1.1725508822
 H         -5.8639716574       -1.1989497805       -0.4668317771
 H         -5.8282871117        1.2889178719        0.5428982942
 H         -7.1580002033        4.4333054159        1.8519891418
 H         -6.9982115838        2.6743187047        2.0777683293
 H         -6.9690496555        3.3750612765        0.4323116985
 H         -2.8332777682        4.0772302945        1.8214052470
 H         -1.0296356214        2.5121714155        1.1694943121
 H         -0.0719413275       -1.9799794950        0.8412057612
 H          2.3550973868       -2.0056338494        0.8094060649
 H          8.0667457392        1.2821929559       -1.6839886615
 H          6.7806840822        2.4886618707       -1.9022629790
 H          6.8226699246        1.0655609835       -2.9321995335
 H          6.7729591174       -2.5314553556        1.8730310945
 H          6.8097456682       -1.1042356631        2.8978350279
 H          8.0596644624       -1.3247413767        1.6560652977
 H          2.3643109823        1.9556753015       -0.8698743456
 H         -0.0629700131        1.9511978476       -0.8760893699
  57
  -92.7221190895000       6.814421592362971E-002 !
 C         -6.7016392163       -3.7459916909       -0.2226084889
 O         -5.3179698160       -4.0095271462       -0.2896389484
 C         -4.4429670153       -2.9829588009       -0.2233648098
 C         -3.0856187336       -3.3533193665       -0.3013898515
 C         -2.0762299343       -2.4212737276       -0.2334679384
 C         -2.4271002904       -1.0842475364       -0.0735409839
 C         -3.7905807772       -0.6926316641       -0.0401998606
 C         -4.8007049093       -1.6406518303       -0.1052880361
 C         -3.7972701210        0.7412213389        0.0481474404
 C         -4.8170196361        1.6780177391        0.1244588782
 C         -4.4730633182        3.0239596251        0.2408744626
 O         -5.3590657458        4.0402432923        0.3210179881
 C         -6.7400256618        3.7591542706        0.2848287675
 C         -3.1190775509        3.4093406398        0.3025187139
 C         -2.1001195866        2.4883019344        0.2240942496
 C         -2.4374367307        1.1472102678        0.0701253382
 N         -1.6274123389        0.0353944208       -0.0036679418
 C         -0.2423202572        0.0349062467        0.0023735394
 C          0.4692879518       -0.8915694851        0.7905172932
 C          1.8327893414       -0.9005111840        0.7941755266
 C          2.5881568688        0.0063917547        0.0004088669
 C          4.0085837107       -0.0213841049       -0.0092964926
 C          4.8056841735        1.1576728755       -0.2190484661
 C          4.2574262904        2.4397207168       -0.3391608025
 N          3.8844427696        3.5286711972       -0.4139121331
 C          6.1983678245        1.0718917586       -0.1892438045
 C          7.0606689592        2.2788496089       -0.3809894176
 N          6.8269062033       -0.0753319465        0.0239903931
 C          6.1483927021       -1.2053580287        0.2089768736
 C          6.9804960022       -2.4317669600        0.4086454397
 C          4.7559020343       -1.2346816954        0.1987732664
 C          4.1306629342       -2.4876990401        0.2592812742
 N          3.6735141422       -3.5463061304        0.2783617563
 C          1.8504939659        0.9393292643       -0.7796750798
 C          0.4863065071        0.9555358168       -0.7764426592
 H         -7.0318119296       -3.1262775786       -1.0621608850
 H         -7.1876464804       -4.7183898350       -0.2798516487
 H         -6.9712477992       -3.2610989055        0.7207150132
 H         -2.8611548574       -4.4001256359       -0.4242383392
 H         -1.0447550083       -2.7231905395       -0.3197465874
 H         -5.8321294627       -1.3285681802       -0.0708134537
 H         -5.8452836404        1.3544937608        0.1005692126
 H         -7.0258723333        3.2762797974       -0.6545482423
 H         -7.2368075510        4.7246392468        0.3594741131
 H         -7.0424626924        3.1303593263        1.1277460168
 H         -2.9051469200        4.4587558869        0.4218261538
 H         -1.0712581803        2.8018885303        0.2987506001
 H         -0.0786703087       -1.5494348659        1.4480538053
 H          2.3504991028       -1.5731999588        1.4574350790
 H          6.8683784473        3.0098743853        0.4044304055
 H          6.8447065932        2.7557446798       -1.3365726703
 H          8.1052042460        1.9821967066       -0.3491042132
 H          7.5092610883       -2.6657933965       -0.5147389882
 H          6.3719598232       -3.2841866449        0.6947954571
 H          7.7288985412       -2.2387228005        1.1745903621
 H          2.3811421790        1.6106447037       -1.4338514558
 H         -0.0482167718        1.6302276663       -1.4279918012
  57
  -92.7219145392000       5.488127466394559E-002 !
 C         -5.3915826508       -5.0904561882       -0.4155001651
 O         -5.6100991212       -3.7028539070       -0.2899054292
 C         -4.5535156604       -2.8626879208       -0.2315027187
 C         -3.2122562564       -3.2650239077       -0.3063120381
 C         -2.1840161249       -2.3433606346       -0.2296825739
 C         -2.5016223886       -1.0033913424       -0.0649248817
 C         -3.8583822754       -0.5782618465       -0.0308476030
 C         -4.8779819871       -1.5061532758       -0.1049076077
 C         -3.8291993041        0.8547722186        0.0657003935
 C         -4.8262239153        1.8144490823        0.1463586829
 C         -4.4498377339        3.1509235787        0.2709207724
 O         -5.3101756605        4.1872999733        0.3569291012
 C         -6.6981271361        3.9396666109        0.3218041870
 C         -3.0859138087        3.5035274874        0.3348931211
 C         -2.0895311056        2.5594476900        0.2515641405
 C         -2.4591967963        1.2269191755        0.0907066265
 N         -1.6756354351        0.0979152784        0.0111553274
 C         -0.2903110602        0.0691168230        0.0088925941
 C          0.4101083926       -0.8699630027        0.7918381846
 C          1.7735813822       -0.8995366939        0.7907894832
 C          2.5403708704       -0.0008246615       -0.0016861453
 C          3.9601453219       -0.0419556637       -0.0099766770
 C          4.7695468782        1.1245486714       -0.2416551217
 C          4.2346606449        2.4123135176       -0.3722028371
 N          3.8771488057        3.5061600116       -0.4533372221
 C          6.1606313887        1.0261617102       -0.2260380423
 C          7.0328717094        2.2220424216       -0.4401766472
 N          6.7836558829       -0.1267285745       -0.0105153827
 C          6.0933319808       -1.2409371963        0.2016096365
 C          6.8923891836       -2.4874045785        0.4136657914
 C          4.6989576439       -1.2562255636        0.2153714728
 C          4.0865492885       -2.5100018508        0.3332859567
 N          3.6606674592       -3.5801786633        0.3999558011
 C          1.8132585875        0.9389027205       -0.7838389799
 C          0.4496753570        0.9760897661       -0.7754228331
 H         -4.8190328854       -5.4841957016        0.4295187739
 H         -6.3821662761       -5.5416028805       -0.4221172652
 H         -4.8772246169       -5.3318718187       -1.3505334447
 H         -2.9615387000       -4.3051426702       -0.4350343170
 H         -1.1592255990       -2.6689595641       -0.3140839861
 H         -5.9164701824       -1.2194140359       -0.0746815002
 H         -5.8607984529        1.5130792381        0.1195337287
 H         -6.9971707255        3.4714746426       -0.6209194168
 H         -7.1712855930        4.9162582324        0.4058870455
 H         -7.0133224336        3.3106359239        1.1598702139
 H         -2.8470268818        4.5468534326        0.4603579940
 H         -1.0533283327        2.8477404873        0.3273400310
 H         -0.1451629800       -1.5217071349        1.4496154050
 H          2.2830550886       -1.5828481772        1.4494791497
 H          8.0750087489        1.9203479619       -0.3943228249
 H          6.8391444101        2.9741869838        0.3225305339
 H          6.8281528564        2.6755139782       -1.4082342867
 H          6.6722527150       -2.9201883876        1.3882648768
 H          7.9505631392       -2.2507510503        0.3534526064
 H          6.6426989245       -3.2317696850       -0.3408853967
 H          2.3512063370        1.6008568421       -1.4416919576
 H         -0.0774668030        1.6568229182       -1.4268077906
  57
  -92.7215283085000       3.646908353304524E-002 !
 C         -6.7632611283       -3.6984482411       -0.2538954194
 O         -5.3838978298       -3.9853264880       -0.3090906481
 C         -4.4924914199       -2.9736449787       -0.2348922789
 C         -3.1411492640       -3.3645856467       -0.3163223659
 C         -2.1170441120       -2.4486855930       -0.2452169304
 C         -2.4460544152       -1.1069875238       -0.0787219580
 C         -3.8036780578       -0.6950952772       -0.0387067473
 C         -4.8286706749       -1.6267232946       -0.1066816071
 C         -3.7892517699        0.7382103212        0.0553070550
 C         -4.7949495331        1.6895742868        0.1374478093
 C         -4.4308974722        3.0301921942        0.2555566516
 O         -5.3013730259        4.0593173933        0.3380443278
 C         -6.6866564502        3.7993384788        0.3013604656
 C         -3.0712465271        3.3952030636        0.3156730994
 C         -2.0662621346        2.4593886486        0.2326274689
 C         -2.4236264943        1.1240191292        0.0738405250
 N         -1.6298329141        0.0007277291       -0.0080726517
 C         -0.2452261223       -0.0109665037       -0.0142044754
 C          0.4714307830       -0.9450562469        0.7607082419
 C          1.8351208364       -0.9472330304        0.7645093700
 C          2.5868237626       -0.0230848080       -0.0135571642
 C          4.0068922915       -0.0251738696       -0.0088452813
 C          4.7837040963        1.1669336746       -0.2243793035
 C          4.2114395380        2.4400343755       -0.3383721448
 N          3.8168137489        3.5221125585       -0.4029922942
 C          6.1769325777        1.1083072663       -0.2051623298
 C          7.0149937990        2.3300872589       -0.4105959441
 N          6.8313001394       -0.0275606532        0.0060728420
 C          6.1727448601       -1.1626220058        0.2095865652
 C          7.0067805198       -2.3859742910        0.4218025715
 C          4.7794474736       -1.2187707424        0.2134330697
 C          4.2034206699       -2.4909863560        0.3184134659
 N          3.8043351584       -3.5716959882        0.3766629761
 C          1.8434814343        0.9044233106       -0.7955963996
 C          0.4798715802        0.9139032334       -0.7923189860
 H         -7.0728436761       -3.0598685444       -1.0868708554
 H         -7.2651971790       -4.6609923145       -0.3321897322
 H         -7.0356379123       -3.2237263510        0.6937726450
 H         -2.9334634788       -4.4141482411       -0.4448938426
 H         -1.0907688983       -2.7668596678       -0.3348531243
 H         -5.8549656029       -1.2985202522       -0.0678806965
 H         -5.8278421650        1.3810723679        0.1165231552
 H         -6.9788683456        3.3177417047       -0.6368035259
 H         -7.1685005145        4.7727033494        0.3722164416
 H         -6.9994007917        3.1780671886        1.1461963135
 H         -2.8412392069        4.4409112594        0.4374251245
 H         -1.0329042439        2.7579223662        0.3065210944
 H         -0.0724826076       -1.6143358259        1.4100660704
 H          2.3557093902       -1.6277883772        1.4171643285
 H          6.8066110670        2.7765053496       -1.3816453048
 H          8.0649107620        2.0593945253       -0.3545547056
 H          6.7911969028        3.0774348249        0.3493576907
 H          8.0574647588       -2.1141563742        0.3922494581
 H          6.8015099124       -3.1242979058       -0.3518307864
 H          6.7762344384       -2.8435464791        1.3822984988
 H          2.3703617977        1.5786890881       -1.4497934376
 H         -0.0581612255        1.5862521985       -1.4434026971
