  69
       -117.55449212
 C         -8.9916218149       -3.0671023107        0.7970133156
 C         -7.6841953884       -3.0950322365        1.2376580226
 C         -6.8152368708       -2.0614861660        0.9222663530
 C         -7.2438566418       -0.9750625546        0.1700309487
 C         -8.5632018097       -0.9739684295       -0.3019790121
 C         -9.4262018966       -2.0060667551        0.0169434037
 O         -9.0580389611        0.0207111659       -1.1076424486
 C         -8.2134470357        1.0521134223       -1.4318818702
 C         -8.7312049712        2.0584268827       -2.2261767494
 C         -7.9505118892        3.1523714822       -2.5685576003
 C         -6.6576367214        3.2396584090       -2.0937050197
 C         -6.1327955480        2.2317428856       -1.2990486453
 C         -6.8899557180        1.1127754029       -0.9756995424
 N         -6.3933642569        0.0816079842       -0.1725304305
 C         -5.0574230825        0.0972407742        0.2698512772
 C         -4.7696773535        0.1354335548        1.6347800455
 C         -3.4626074493        0.1369476882        2.0690972897
 C         -2.4183189558        0.1017252614        1.1426343350
 C         -1.0572445887        0.0938327649        1.6160343279
 N         -0.6637040983        0.1198723725        2.8576393167
 N          0.6722444850        0.0965397140        2.8542365345
 C          1.0582609827        0.0559983230        1.6106012043
 C          2.4164470534        0.0184125549        1.1304096905
 C          2.6948114292       -0.0288843828       -0.2357090813
 C          4.0017718580       -0.0616070039       -0.6740490443
 C          5.0505569507       -0.0493595477        0.2441861418
 N          6.3842136577       -0.0807964540       -0.2034562310
 C          7.2595102834        0.9680002527        0.0980401034
 C          6.8446695465        2.1124204396        0.7675554589
 C          7.7380036865        3.1353926765        1.0471325070
 C          9.0569149845        3.0378175585        0.6527265303
 C          9.4785089668        1.9182841655       -0.0487458124
 C          8.5906737348        0.8972738724       -0.3334749453
 O          9.0734653606       -0.1584215133       -1.0651018169
 C          8.2014912652       -1.1756839789       -1.3605117010
 C          8.7048591892       -2.2374151431       -2.0892506727
 C          7.8972407299       -3.3221316957       -2.3963392696
 C          6.5912591630       -3.3437312693       -1.9510522171
 C          6.0807499213       -2.2799608187       -1.2227177734
 C          6.8656266485       -1.1697982066       -0.9372499507
 C          4.7703067051       -0.0040262372        1.6106294123
 C          3.4660825527        0.0301240594        2.0515112621
 O         -0.0020125726        0.0521659622        0.7660429195
 C         -2.7044111202        0.0715956813       -0.2224232395
 C         -4.0138982388        0.0692160789       -0.6539832468
 H         -9.6727094527       -3.8662111965        1.0431641440
 H         -7.3239952544       -3.9229830925        1.8285413456
 H         -5.7914803091       -2.1077416078        1.2584966560
 H        -10.4346668911       -1.9627335926       -0.3622806247
 H         -9.7519474789        1.9688614502       -2.5617137912
 H         -8.3620213310        3.9309893666       -3.1911371683
 H         -6.0444434815        4.0947886944       -2.3328614596
 H         -5.1271975890        2.3224089671       -0.9193855920
 H         -5.5817241820        0.1706496867        2.3454704402
 H         -3.2210407676        0.1711941079        3.1191858817
 H          1.8828072479       -0.0315344444       -0.9470848043
 H          4.2222352167       -0.0878931514       -1.7309167275
 H          5.8131645562        2.2110987421        1.0672044009
 H          7.3882716876        4.0096124427        1.5742450663
 H          9.7573808539        3.8276331064        0.8733138908
 H         10.4960628278        1.8194730525       -0.3915522264
 H          9.7362793743       -2.1980043997       -2.4008336318
 H          8.2976562404       -4.1442694959       -2.9680046487
 H          5.9559010147       -4.1898293866       -2.1627052632
 H          5.0643118337       -2.3210288456       -0.8640672855
 H          5.5862292096       -0.0042557183        2.3177920759
 H          3.2306877855        0.0580701118        3.1031696200
 H         -1.8963479543        0.0393770649       -0.9375795177
 H         -4.2407557398        0.0352937508       -1.7093205932
