69
 energy: -117.554485813685 gnorm: 0.000063970359 xtb: 6.7.1 (edcfbbe)
C           -8.09519142369282       -3.72474104582815       -1.14276258463900
C           -6.80589864078156       -3.68134743692544       -0.65263282251453
C           -6.22918772368821       -2.46999778948441       -0.30215484203492
C           -6.92969851842311       -1.27924455201703       -0.44786455582927
C           -8.25077953721324       -1.33846023155470       -0.91121037087354
C           -8.82031912935884       -2.54855922065423       -1.26169611258827
O           -9.04326988808958       -0.22409448883078       -1.02335818272781
C           -8.49384458536577        0.98238963898692       -0.66863776147195
C           -9.30097456382047        2.09774488735850       -0.79609600357001
C           -8.80795717307777        3.35779306425520       -0.49217062960293
C           -7.49810872324401        3.49305383892705       -0.07946392069019
C           -6.68524095784780        2.37744706039926        0.05229177902818
C           -7.17365078163920        1.10476627087482       -0.21544744997084
N           -6.38023728327112       -0.04164972876451       -0.09951249312092
C           -5.04856303288439        0.05367881379676        0.34562360441823
C           -4.76906363181386        0.53912001009570        1.62373771923530
C           -3.46560918687809        0.65140894957121        2.05444272733314
C           -2.41683245133483        0.27840319141484        1.21127721598797
C           -1.05803977528853        0.42867893874413        1.66709985660776
N           -0.66846509860864        0.87697522575647        2.82664539763535
N            0.66771914593770        0.87667528316515        2.82704234397109
C            1.05778280355727        0.42818295687695        1.66773824090768
C            2.41678048176756        0.27749236675364        1.21265456756940
C            2.69574642933219       -0.21923084023364       -0.06079396492061
C            4.00175707282296       -0.33023181132692       -0.48852432342543
C            5.04883850794851        0.05324732643997        0.34791792609934
N            6.38065791272934       -0.04103904962458       -0.09703960850809
C            7.17256484724451        1.10627824622138       -0.21443373200002
C            6.68292317611157        2.37852986539062        0.05309181430952
C            7.49431467837572        3.49503337165440       -0.08015913502552
C            8.80388496600682        3.36110626703238       -0.49417249323305
C            9.29810537851979        2.10146415914733       -0.79783062896998
C            8.49245950294467        0.98521110115478       -0.66885015274150
O            9.04300900555993       -0.22083174563398       -1.02334464068353
C            8.25192626771420       -1.33606745413253       -0.90989414363708
C            8.82251129297090       -2.54568847463767       -1.26032023230561
C            8.09882182599699       -3.72263116390504       -1.14011973471501
C            6.80993050351844       -3.68046703672736       -0.64882159816078
C            6.23216088526945       -2.46959833470171       -0.29841843021249
C            6.93120785812560       -1.27813859533602       -0.44535745641284
C            4.76879497959320        0.53909767323446        1.62575325330734
C            3.46516958110142        0.65113841160355        2.05601560537408
O            0.00003763638579        0.11996270612700        0.87813232616280
C           -2.69522798034355       -0.21752407734727       -0.06260539143876
C           -4.00106848662847       -0.32872210884204       -0.49080216333278
H           -8.54686900775650       -4.66362366695834       -1.42127365120731
H           -6.23602003394163       -4.58987855555725       -0.53307435986363
H           -5.22764981013168       -2.45344070814676        0.09817738680172
H           -9.83712348826276       -2.54851066720142       -1.62042641170451
H          -10.31268833609661        1.95791680957694       -1.14173409628555
H           -9.44573512303625        4.22171853070309       -0.59178875597315
H           -7.09229729872759        4.46831793767658        0.14084362656074
H           -5.65850288437139        2.50197506934826        0.35834390979458
H           -5.58513305879932        0.82126403967178        2.27197738773403
H           -3.23072097999225        1.02181696526611        3.03924422306973
H            1.88414379814932       -0.50438851365536       -0.71300861974033
H            4.22226142639986       -0.70237358658483       -1.47807467543732
H            5.65636163609718        2.50203197707345        0.36014238890426
H            7.08755390364299        4.46993438168032        0.14000615247853
H            9.44050678054395        4.22574321356477       -0.59500337661588
H           10.30962506713686        1.96264737058067       -1.14444268356332
H            9.83897006373425       -2.54466770937783       -1.62002869730279
H            8.55131048313346       -4.66113722860548       -1.41858634617522
H            6.24121085670483       -4.58959498427611       -0.52828396295376
H            5.23095880105645       -2.45392550967797        0.10280057065150
H            5.58457658569453        0.82189005929877        2.27407192515990
H            3.22984604431769        1.02198834702713        3.04054709416690
H           -1.88332457508903       -0.50200648337752       -0.71474142143443
H           -4.22113301663200       -0.70031352647123       -1.48065642563527
