69
 energy: -117.481560886489 gnorm: 0.000041398396 xtb: 6.7.1 (edcfbbe)
C           -9.03938934717074       -3.03450718865749        0.78719889806476
C           -7.71630081810458       -3.09757470969319        1.18872050115978
C           -6.83627035547596       -2.07927070527511        0.87038038341172
C           -7.26733618803838       -0.96616644095354        0.15068623670551
C           -8.60316166856548       -0.93077625263988       -0.28360295718036
C           -9.47826258063228       -1.95339877823759        0.04071634539579
O           -9.09320186113848        0.08761707155710       -1.05373280501314
C           -8.23790402671774        1.10254671213047       -1.38254348283545
C           -8.74812229948339        2.13271665403983       -2.15400283387870
C           -7.94713938202752        3.21056236386689       -2.49375114287137
C           -6.64073831822762        3.26296904848939       -2.03952620924213
C           -6.12295208461182        2.23686769035006       -1.27031643743892
C           -6.90177473035584        1.12662996516719       -0.94830878291428
N           -6.41152530022054        0.07615178662823       -0.18302736374358
C           -5.06748651224345        0.06829486118635        0.24810781214561
C           -4.76491522923489        0.08107486544662        1.62014637071126
C           -3.46503570686004        0.08071721498401        2.04152249418921
C           -2.40434436045522        0.05129959758486        1.10191200368797
C           -1.07289033852821        0.04268217470615        1.54522056798627
N           -0.64986291921143        0.05685071239281        2.80956184571156
N            0.64933127527761        0.03990184843719        2.81012928427942
C            1.07294934990626        0.01601675638939        1.54611750897801
C            2.40452831035693       -0.00736341018854        1.10378169815299
C            2.72280878984763       -0.02918572282182       -0.27664643228467
C            4.02681557688064       -0.06121439568455       -0.68864790313360
C            5.06782417576299       -0.05662641692295        0.25160184447526
N            6.41167035202306       -0.08260204686639       -0.17941176634133
C            7.27187758010689        0.96616314704366        0.12116141233187
C            6.84689935148498        2.10109241708594        0.80970165679580
C            7.73123597526929        3.12542246743328        1.09515173599489
C            9.05260817664744        3.04658818923232        0.69078813091978
C            9.48545834237822        1.94273230491595       -0.02529944748839
C            8.60610479873353        0.91377026980917       -0.31636269135830
O            9.09046918549536       -0.12832420670828       -1.05785938727947
C            8.23150832369159       -1.15066683815265       -1.35233408285110
C            8.73649381713139       -2.20564065675549       -2.09310191035785
C            7.93151014058641       -3.29121075436704       -2.39689943086727
C            6.62639545017105       -3.32583542335865       -1.93730822951367
C            6.11384676381629       -2.27498520607668       -1.19862479098122
C            6.89671577239608       -1.15753236991522       -0.91346364194064
C            4.76499223714805       -0.02709254385605        1.62330496391562
C            3.46500241874892       -0.01066258408128        2.04410997151147
O            0.00021548266887        0.01645457859802        0.67933131714795
C           -2.72230971515327        0.03114504394307       -0.27860219043316
C           -4.02631036328422        0.04748568237517       -0.69167790239406
H           -9.72686858467530       -3.82622261317676        1.03898325294888
H           -7.35921965943713       -3.94651921944116        1.75051961388878
H           -5.80345109068329       -2.14520146086085        1.17196242510681
H          -10.49626541891897       -1.88437115073881       -0.30759109282744
H           -9.77675975754007        2.07230357971416       -2.47128712090364
H           -8.34993865082414        4.00832443159525       -3.09722862576120
H           -6.01651282150671        4.10989218477364       -2.27830156771173
H           -5.11054106165784        2.29462834712768       -0.90456551408623
H           -5.57496616666521        0.11595980478166        2.33454580436027
H           -3.21346591367373        0.11006244475879        3.08909995376887
H            1.91884604532021       -0.01197930943698       -0.99596277535775
H            4.27040936222360       -0.06600543555224       -1.74179516804238
H            5.81537968674807        2.17915460253978        1.11282103252574
H            7.37884371283395        3.99143345190664        1.63337292745279
H            9.74339714272243        3.84319571694405        0.91677253024532
H           10.50193840665627        1.86038028953332       -0.37517063251321
H            9.76426300640776       -2.15795316390836       -2.41530509112016
H            8.33023059174111       -4.10840534524095       -2.97661328955604
H            5.99909157340547       -4.17794893417967       -2.14786975227423
H            5.10241437831605       -2.31852189446335       -0.82822549088400
H            5.57475334339944       -0.04274554537214        2.33871083766880
H            3.21316463955377       -0.00784441022859        3.09203144741901
H           -1.91811846179004       -0.00570455943603       -0.99692649322940
H           -4.26958766270839        0.01985758034105       -1.74454430104915
