69
 energy: -117.481561450074 gnorm: 0.000023908659 xtb: 6.7.1 (edcfbbe)
C           -9.04344944425509       -3.02070200048977        0.84534660096051
C           -7.72098064052475       -3.07682324612237        1.24990626379297
C           -6.83963512249991       -2.06574045782967        0.91268044284375
C           -7.26872501457186       -0.96664204419658        0.17061414504114
C           -8.60391208257056       -0.93888657836768       -0.26619120855519
C           -9.48031150265683       -1.95423674979337        0.07695213510059
O           -9.09216844134849        0.06430960966783       -1.05711781957313
C           -8.23587066723801        1.07224342783677       -1.40428675642401
C           -8.74447024567269        2.08738104634473       -2.19646507926401
C           -7.94252460926084        3.15807685907838       -2.55595184438316
C           -6.63688109075140        3.21887071255086       -2.10062009080736
C           -6.12075782338880        2.20777713746817       -1.31069761083928
C           -6.90040767714209        1.10414438463188       -0.96855472648534
N           -6.41166059614942        0.06835447524729       -0.18244001424525
C           -5.06768079534514        0.06738542637547        0.24871504707012
C           -4.76464385316613        0.10349644006618        1.62026609099543
C           -3.46464357145717        0.10976505623575        2.04123443320085
C           -2.40417825404739        0.06452226957478        1.10197481266367
C           -1.07256143656330        0.06314885062839        1.54478055953122
N           -0.64884378994297        0.09540576508394        2.80859012017487
N            0.65034843186403        0.07866657159619        2.80866675970190
C            1.07326680487811        0.03729475936592        1.54485512135680
C            2.40457586783601        0.00879421608160        1.10205401525734
C            2.72204237761558       -0.02863328674462       -0.27823697610757
C            4.02579421878545       -0.06468250345749       -0.69069072860784
C            5.06745047799292       -0.04950291599710        0.24877687714522
N            6.41101875886911       -0.07971142326106       -0.18255775996838
C            7.27180357200242        0.97119839784434        0.10906112646830
C            6.84720668593619        2.11275278130373        0.78683540437006
C            7.73221993625574        3.13876030494957        1.06404005865775
C            9.05396286967844        3.05504700541699        0.66187868445551
C            9.48639322051092        1.94454506688225       -0.04410586842117
C            8.60631050590392        0.91391211234019       -0.32696716068755
O            9.09032227926041       -0.13486838430089       -1.05918732009488
C            8.23055819274322       -1.15869733607847       -1.34600575480556
C            8.73501589734849       -2.21980380291023       -2.07833800861086
C            7.92940636378069       -3.30720129456229       -2.37379181259683
C            6.62426989596325       -3.33743606628939       -1.91396963820460
C            6.11226912620185       -2.28046283049971       -1.18367966698624
C            6.89562972227318       -1.16108318497934       -0.90749827816959
C            4.76535872114751       -0.00484005480594        1.62028821599861
C            3.46565284424836        0.01633087171074        2.04169097212041
O            0.00007683095597        0.02511670617778        0.67873653250292
C           -2.72257364580729        0.02121968127623       -0.27792507561974
C           -4.02666076870184        0.03041176471595       -0.69082888794357
H           -9.73195122297298       -3.80672123568703        1.11177000157784
H           -7.36537809008413       -3.91473339733640        1.82894861766094
H           -5.80727396909369       -2.12678407841885        1.21682783147234
H          -10.49771343524601       -1.89130943911893       -0.27427394847997
H           -9.77263560186711        2.02114517585390       -2.51410369455230
H           -8.34399868431964        3.94402606462828       -3.17559234706557
H           -6.01192930113226        4.06075433767883       -2.35480955130006
H           -5.10897746328082        2.27248384395989       -0.94438065210841
H           -5.57440983043578        0.15107571763300        2.33425563285276
H           -3.21279767994656        0.15666985809562        3.08810750188795
H            1.91764479891892       -0.01963499956769       -0.99721830518796
H            4.26863479195059       -0.08068681321687       -1.74389904254219
H            5.81544986515893        2.19464534015439        1.08811667920140
H            7.38008325206129        4.00987025918007        1.59413772948364
H            9.74532448461624        3.85289596281241        0.88164649166435
H           10.50310572347851        1.85812359547465       -0.39232061024275
H            9.76290849950541       -2.17529829261448       -2.40061182379129
H            8.32765594622119       -4.12912960276483       -2.94710128969391
H            5.99648577314445       -4.19082964469293       -2.11781346020491
H            5.10084171531744       -2.32068183398391       -0.81290968510676
H            5.57552591658443       -0.01262030197023        2.33536426755383
H            3.21447867415173        0.03101018516345        3.08967292942288
H           -1.91859825244853       -0.02781097075406       -0.99576277360154
H           -4.27016520939356       -0.01532204880592       -1.74301182949590
