  69
       -117.47952239
 C         -9.0244487747       -3.0652785410        0.7076214325
 C         -7.7134214989       -3.1171219627        1.1487512085
 C         -6.8344757308       -2.0885686323        0.8622223518
 C         -7.2551225847       -0.9759592780        0.1354094210
 C         -8.5782305345       -0.9508895688       -0.3377178890
 C         -9.4520079841       -1.9844203494       -0.0457420996
 O         -9.0554138125        0.0668925869       -1.1163792298
 C         -8.2041152704        1.0964331939       -1.4070963739
 C         -8.7031633831        2.1302063426       -2.1810553515
 C         -7.9049946756        3.2212511111       -2.4832130472
 C         -6.6133713041        3.2831478433       -1.9892232992
 C         -6.1064920428        2.2535892728       -1.2177974696
 C         -6.8816664543        1.1303897656       -0.9330588978
 N         -6.4009621886        0.0762118260       -0.1678983663
 C         -5.0610022110        0.0687365432        0.2761613882
 C         -4.7675283554        0.0736530334        1.6499112521
 C         -3.4698402611        0.0761927895        2.0794690248
 C         -2.4038347413        0.0574195621        1.1462793531
 C         -1.0727032412        0.0530170054        1.5928156582
 N         -0.6472689895        0.0676583605        2.8549063845
 N          0.6537753921        0.0557197087        2.8516471444
 C          1.0726167447        0.0337117303        1.5873334259
 C          2.4017261099        0.0106447048        1.1354980239
 C          2.7067306796       -0.0182726299       -0.2476082637
 C          4.0066414386       -0.0548406072       -0.6720402113
 C          5.0561777959       -0.0471593231        0.2584017158
 N          6.3957300299       -0.0798928700       -0.1855427125
 C          7.2605741699        0.9692337084        0.0972694223
 C          6.8443853225        2.1109562223        0.7803465154
 C          7.7335976409        3.1355393612        1.0485915289
 C          9.0510254365        3.0504011028        0.6321963343
 C          9.4749258101        1.9396766666       -0.0786380923
 C          8.5906929641        0.9101010152       -0.3524769866
 O          9.0653085257       -0.1395167879       -1.0892434369
 C          8.2018606681       -1.1629520085       -1.3654021628
 C          8.6976156931       -2.2265097281       -2.1002147262
 C          7.8872376552       -3.3130901922       -2.3855830987
 C          6.5860212527       -3.3398590533       -1.9139602497
 C          6.0826196412       -2.2806939531       -1.1811428819
 C          6.8710958533       -1.1624833478       -0.9136804190
 C          4.7666091054       -0.0082884328        1.6326421362
 C          3.4705091405        0.0123391603        2.0657651730
 O         -0.0022654678        0.0312891711        0.7241883733
 C         -2.7128755658        0.0447790610       -0.2361627661
 C         -4.0140854368        0.0591392932       -0.6573698214
 H         -9.7108623596       -3.8655209994        0.9340428998
 H         -7.3650193642       -3.9653605068        1.7170335870
 H         -5.8105939701       -2.1454730096        1.1946138384
 H        -10.4596234147       -1.9240219051       -0.4243981051
 H         -9.7206199968        2.0616949306       -2.5310922436
 H         -8.2986567641        4.0216604886       -3.0892099999
 H         -5.9928221306        4.1405495395       -2.1982779813
 H         -5.1058101348        2.3170345148       -0.8220666065
 H         -5.5821459006        0.1010334643        2.3594580290
 H         -3.2250107294        0.1000074829        3.1288096777
 H          1.8959827516       -0.0038344766       -0.9593094428
 H          4.2402400314       -0.0661025493       -1.7274161659
 H          5.8158386022        2.1935496538        1.0922941917
 H          7.3881928814        4.0070315382        1.5824982795
 H          9.7453421527        3.8476772597        0.8444344922
 H         10.4877732687        1.8524590456       -0.4376705862
 H          9.7223286891       -2.1844519378       -2.4326515185
 H          8.2784701154       -4.1369207735       -2.9609664846
 H          5.9546976148       -4.1922854106       -2.1110323948
 H          5.0743730296       -2.3175958859       -0.8014061859
 H          5.5832754294       -0.0208387445        2.3402541458
 H          3.2285678007        0.0207291367        3.1159949113
 H         -1.9039887188        0.0162216531       -0.9495149317
 H         -4.2510338460        0.0391191564       -1.7118669709
