52
 energy: -80.238421351843 gnorm: 0.000078273445 xtb: 6.7.1 (edcfbbe)
C           -0.00088651279939       -2.29595615932711        2.21638778911529
C            1.20178125659883       -1.80060869795672        1.75473558832680
C            1.20528368476700       -0.73791855839698        0.79954264954029
N            2.41284277687806       -0.26315936621130        0.31090309662252
C            2.77423966645642        1.06513601370515        0.16128038716453
C            2.09065547858817        2.21104098549552        0.52577793332146
C            2.70028609987462        3.43843269098494        0.29840637501153
C            3.96796489899080        3.51361103541947       -0.27677754826575
C            4.67393322935400        2.37335760490416       -0.61368869109524
C            4.08676001767334        1.13092425761305       -0.38536207696028
C            4.52465316891283       -0.21532508470219       -0.56615030441857
C            5.69174166410609       -0.79090052624608       -1.06216593461810
C            5.77096637950219       -2.16977190773216       -1.13965692754355
C            4.70932461947578       -2.98147483544383       -0.74361807241843
C            3.53694807851526       -2.43142685447390       -0.23931950684138
C            3.46051139836518       -1.05387242600286       -0.13011188217783
C           -0.00002621421312       -0.20827303424234        0.35853107460206
C           -1.20584313312532       -0.73678473153035        0.79967542540952
N           -2.41298519364977       -0.26120034088834        0.31089984613396
C           -2.77302616702941        1.06734000433772        0.16007416146720
C           -2.08832109774462        2.21291100294080        0.52349333472312
C           -2.69665912732729        3.44072555982334        0.29483703210484
C           -3.96421572978513        3.51664230305982       -0.28052408985525
C           -4.67135450248549        2.37678771248036       -0.61630046639736
C           -4.08547985380228        1.13396355874672       -0.38668404284564
C           -4.52476116398668       -0.21196357062452       -0.56621550328412
C           -5.69248589498108       -0.78674748509339       -1.06169432503729
C           -5.77318496279123       -2.16559498488422       -1.13794737959437
C           -4.71238396387166       -2.97807039951625       -0.74124005585501
C           -3.53938530462965       -2.42879991664367       -0.23747945810713
C           -3.46147421026052       -1.05124295807255       -0.12943619411683
C           -1.20312599889693       -1.79932301084411        1.75507511343284
H           -0.00120206489588       -3.08335508718818        2.95602756238840
H            2.13964656595166       -2.15449724139879        2.15025483542524
H            1.11955447034683        2.16080996965589        0.99228469272690
H            2.18463689923223        4.34509032496872        0.57444259691878
H            4.40967825765290        4.48422194534541       -0.44856755031204
H            5.66377405484399        2.43876266425567       -1.03865471576781
H            6.51311287066501       -0.16912443445548       -1.38373709272640
H            6.66806973911354       -2.63065078718939       -1.52640290105917
H            4.79331877820723       -4.05304514679578       -0.83799857460110
H            2.70734536337955       -3.06414170380936        0.03730104585509
H            0.00032349263191        0.56135521207797       -0.39891657647086
H           -1.11731000151255        2.16221015703796        0.99011635172653
H           -2.18007337324764        4.34710775911341        0.56998470637375
H           -4.40489313965654        4.48753765626644       -0.45334548698649
H           -5.66109284235069        2.44276947894454       -1.04139141902762
H           -6.51318288971550       -0.16437042575961       -1.38378995378430
H           -6.67078592292115       -2.62586777624336       -1.52425172064063
H           -4.79749509196316       -4.04962437106642       -0.83467400949038
H           -2.71045441689092       -3.06219009158380        0.03957805220625
H           -2.14124097125216       -2.15212249360643        2.15098146566670
