52
 energy: -80.349976207830 gnorm: 0.000046923074 xtb: 6.7.1 (edcfbbe)
C           -0.00159759800543       -2.20032313848843        2.30303162339138
C            1.20009710880696       -1.71881433357566        1.81754072518062
C            1.20414275360021       -0.74567153562844        0.82103449997476
N            2.41912122793179       -0.27235868820309        0.30959637809925
C            2.78594153731904        1.05242671135905        0.17341937725687
C            2.10307811676755        2.20194074559579        0.54141323121075
C            2.71571302217628        3.41957814066263        0.31657371238884
C            3.98504298264899        3.49998754206256       -0.25130932620461
C            4.68193128567190        2.35890976007195       -0.59487152772206
C            4.08501006650724        1.12382464953740       -0.37937002287728
C            4.51432004109584       -0.23043818212766       -0.58932090478626
C            5.67057745231059       -0.79511806762491       -1.11129834553252
C            5.75554076320759       -2.17036463471968       -1.19485250423294
C            4.69982444566004       -2.97927336427326       -0.78054445082400
C            3.53959029244627       -2.44071701546980       -0.25786880944366
C            3.45850741068240       -1.06012219532313       -0.14790298468315
C            0.00064907789451       -0.26121853705516        0.32097538692499
C           -1.20402455691223       -0.74435506525744        0.81946932336907
N           -2.41795931254415       -0.27027823445205        0.30638976925651
C           -2.78375910734721        1.05470655040853        0.16889538353788
C           -2.09917725826956        2.20420882203948        0.53373062663723
C           -2.71090346983072        3.42207802308898        0.30762984351279
C           -3.98098441456281        3.50280406619425       -0.25849868525805
C           -4.67961386836036        2.36181341067531       -0.59879272435850
C           -4.08368424209774        1.12650293214709       -0.38185387467994
C           -4.51479900276740       -0.22764424263831       -0.58877744250464
C           -5.67281045560317       -0.79196313474792       -1.10727923766272
C           -5.75938023648475       -2.16724176867402       -1.18844348891410
C           -4.70339220973536       -2.97655833539431       -0.77559832745316
C           -3.54149689471962       -2.43835320154835       -0.25629440120561
C           -3.45900052971283       -1.05768459118005       -0.14806189546179
C           -1.20213163497528       -1.71721701540524        1.81631109582417
H           -0.00253080307173       -2.94998083204374        3.08003446024763
H            2.13677523876976       -2.07957423111039        2.21359522857783
H            1.12952674399649        2.15010970630729        1.00361525666977
H            2.20064826917665        4.32826527744673        0.59124330448817
H            4.43003139434961        4.47039882993553       -0.41336019785835
H            5.67310292339351        2.41979190530290       -1.01831786482285
H            6.48151811258513       -0.16687251456595       -1.44761135313631
H            6.64685955422288       -2.63009817161731       -1.59510823198086
H            4.78836220859264       -4.05172122810168       -0.87313607195731
H            2.72040893273045       -3.07625415864927        0.04323023362326
H            0.00166297177177        0.46684801986051       -0.47617395230717
H           -1.12489806932329        2.15235157593372        0.99434003286853
H           -2.19443262174152        4.33071025315424        0.57982587182848
H           -4.42514474601751        4.47337478278061       -0.42185428185013
H           -5.67133207761920        2.42296080782046       -1.02092225348510
H           -6.48391008950375       -0.16339983285805       -1.44260921326019
H           -6.65213592237845       -2.62670965228286       -1.58579510848318
H           -4.79307195884187       -4.04903674096789       -0.86670496752090
H           -2.72212964519856       -3.07422229726033        0.04358934134528
H           -2.13966019968955       -2.07667326581598        2.21153699603489
