52
 energy: -80.349975103849 gnorm: 0.000024706389 xtb: 6.7.1 (edcfbbe)
C            0.00000322121481       -2.26972254795387        2.25518130254719
C            1.20122018264273       -1.77524381921912        1.78164218396455
C            1.20422325520038       -0.77771092181900        0.80952644302878
N            2.41823274447783       -0.28912304365215        0.31040339846692
C            2.77974959789762        1.03997987302539        0.20445191134603
C            2.09221372880421        2.17810898406750        0.59818039511729
C            2.69939232175552        3.40312903698526        0.40042276108656
C            3.96825464446745        3.50167488419595       -0.16559164302816
C            4.67028548203452        2.37147370096329       -0.53376008702796
C            4.07878645685968        1.12930353598306       -0.34569398051056
C            4.51418882031977       -0.21809825550228       -0.58504663760729
C            5.67378363745429       -0.76581406466987       -1.11755413058590
C            5.76524201178459       -2.13847073710528       -1.23120942090656
C            4.71250052334699       -2.96104509059183       -0.83673779544540
C            3.54901240087022       -2.43943424721798       -0.30416589139447
C            3.46152218951670       -1.06201343865309       -0.16344691354505
C            0.00000028739971       -0.28237413419061        0.32196938384818
C           -1.20422124046734       -0.77770426328584        0.80953690183046
N           -2.41823228261574       -0.28911041573616        0.31042363261095
C           -2.77974196711509        1.03999440943721        0.20447108593633
C           -2.09219603316456        2.17812060228177        0.59819048576021
C           -2.69936901674422        3.40314370064895        0.40043452168726
C           -3.96823595326736        3.50169545656877       -0.16556852858916
C           -4.67027687265850        2.37149734441033       -0.53372717762879
C           -4.07878325447217        1.12932425307316       -0.34566332114995
C           -4.51419473249213       -0.21807549384659       -0.58501085359193
C           -5.67379663604880       -0.76578563687872       -1.11750873503968
C           -5.76526450914156       -2.13844207518335       -1.23115900011416
C           -4.71252535297040       -2.96102177056037       -0.83669232842017
C           -3.54902997732597       -2.43941654089626       -0.30413078079234
C           -3.46153028014303       -1.06199587027936       -0.16341613574079
C           -1.20121513044839       -1.77523672361149        1.78165314175413
H            0.00000440418988       -3.03860982623440        3.01317006497216
H            2.13820253871511       -2.14469918358774        2.16884048106523
H            1.11919856315716        2.11187387685125        1.05951844093671
H            2.18027607489528        4.30315345594608        0.69524285387002
H            4.40884303919930        4.47738328606977       -0.30644196207454
H            5.66126453748398        2.44606657782384       -0.95545316177992
H            6.48234844227553       -0.12655619378854       -1.43849062293413
H            6.65936830048747       -2.58520236786102       -1.63983913040531
H            4.80604935308153       -4.03076972895701       -0.95289328762498
H            2.73226752724133       -3.08525466350878       -0.01877721105749
H           -0.00000097141404        0.46482823667545       -0.45726156069136
H           -1.11917814604310        2.11188104095512        1.05952209850541
H           -2.18024540786274        4.30316577899485        0.69524870819766
H           -4.40881896943577        4.47740614994114       -0.30641961307560
H           -5.66125767712065        2.44609505026646       -0.95541525227032
H           -6.48236141607004       -0.12652385197638       -1.43843752579710
H           -6.65939738715386       -2.58516946521048       -1.63977893987914
H           -4.80608095635334       -4.03074606941440       -0.95284558371511
H           -2.73228599526735       -3.08524104818129       -0.01874881529658
H           -2.13819612095874       -2.14468674557546        2.16885983119250
