72
 energy: -111.553171346133 gnorm: 0.000095311417 xtb: 6.7.1 (edcfbbe)
C           -7.58146223777158        0.28819516086291        1.23581159710675
C           -6.69454338512603        0.00556881321365        0.00550958771464
C           -7.57702973592982       -0.27620168524785       -1.22820819890476
C           -5.85214630458302       -1.21731138269336        0.28739320199806
C           -6.46650968286451       -2.43075049865064        0.56663961347766
C           -5.73666607633899       -3.57349359782495        0.83943543486182
C           -4.34843784070062       -3.51936033294568        0.84392596142704
C           -3.70923355706702       -2.33264485207115        0.57062929613116
C           -4.44579321691333       -1.17126406740901        0.28246405140120
N           -3.78239541872062        0.00348144209749        0.00817143646734
C           -2.35587990045794        0.00181340418405        0.00706439719637
C           -1.66690918582040       -0.42590076344230       -1.12062984710426
C           -0.28550101718666       -0.43091210205565       -1.11707263126354
C            0.41577265794383       -0.00177901129162        0.00418246590067
C            1.89423708065617       -0.00405284840079        0.00245050340828
C            2.57173270827825       -1.22346129430952       -0.06032747538868
C            1.81806657429546       -2.38619673863225        0.04610911203796
N            1.10719429241064       -3.29335933614990        0.15870900230006
C            4.02726370918250       -1.18148997417595       -0.10047418997436
C            4.87610528901743       -2.34628264751063       -0.20134934593544
C            4.42653005647754       -3.57808069950648       -0.69442732902850
C            5.28634887050155       -4.65360163151454       -0.79091219958303
C            6.61197720188116       -4.53515605996272       -0.40181111645953
C            7.07578706718242       -3.31677896543983        0.07794230459371
C            6.22561366230918       -2.23879299143136        0.17648959765297
N            4.61183446824646       -0.00862400614929       -0.00213663752286
C            4.03151396717285        1.16615784164378        0.09833059657646
C            4.88458349651861        2.32815747952185        0.19592634588286
C            4.44117841694173        3.56123517689306        0.69137825569503
C            5.30490138531199        4.63393876059326        0.78430984018028
C            6.62837961861135        4.51132463975618        0.38922196683081
C            7.08614801181358        3.29157219065015       -0.09283497822568
C            6.23204639712273        2.21638480812866       -0.18789657331326
C            2.57599665313906        1.21304361601293        0.06327869215384
C            1.82611228881804        2.37843960468626       -0.04052763806625
N            1.11826357158285        3.28828244557646       -0.15038705525417
C           -0.28203171954165        0.42921490139372        1.12686655924949
C           -1.66347793558420        0.42778922515736        1.13330769304242
C           -4.44359287787623        1.17941679604215       -0.26633226276393
C           -3.70486124132590        2.33989648886829       -0.55255802763399
C           -4.34186970663907        3.52770989605741       -0.82620405433055
C           -5.73002173065980        3.58382882379586       -0.82419283857125
C           -6.46199146065611        2.44199280862313       -0.55331186618577
C           -5.84987357383022        1.22754084545494       -0.27352278482502
H           -6.95915920859551        0.49480606727273        2.10418916707770
H           -8.21178570505946       -0.56676205397523        1.45910414144919
H           -8.22092538029700        1.14699623583541        1.05786851879948
H           -8.21750441089790       -1.13480260048648       -1.05292885747067
H           -8.20605405839564        0.57919131985382       -1.45352290313703
H           -6.95158971284364       -0.48278741765346       -2.09433686844487
H           -7.54296580021721       -2.49197844060908        0.57336433001715
H           -6.24492426523027       -4.50134791970734        1.05141155808855
H           -3.76531513148261       -4.40084908297483        1.06085794464837
H           -2.63172292180139       -2.29375505737695        0.57842372110753
H           -2.21199771961166       -0.75286726518047       -1.99309923089898
H            0.25498798404556       -0.76199877925281       -1.99149860776832
H            3.40313757600461       -3.68797807592992       -1.01851335781815
H            4.91797914124813       -5.59374198616795       -1.17621139580674
H            7.27823957330283       -5.38181558867559       -0.47426102250669
H            8.10888789701059       -3.21323663636613        0.37813010103488
H            6.57859225184195       -1.29042716506553        0.55416369018702
H            3.41960248645812        3.67431164117194        1.02009379290502
H            4.94132201705113        5.57514017851927        1.17154292199961
H            7.29771584078742        5.35578782598898        0.45887670126350
H            8.11757359017529        3.18480022545434       -0.39760234238106
H            6.58025267215331        1.26700632285158       -0.56743638889296
H            0.26114226721681        0.75883059599444        2.00018283153205
H           -2.20588534250693        0.75618170795340        2.00691394541377
H           -2.62740204745406        2.29944745590999       -0.55857848029332
H           -3.75709318784565        4.40848562598668       -1.04158166300179
H           -6.23656602763152        4.51250947981674       -1.03663610435950
H           -7.53834564274618        2.50472340966527       -0.56218248530984
