  72
       -111.57642510
 C         -7.5680158565       -0.2769792296        1.2135929985
 C         -6.6860755714       -0.0361760885       -0.0249662305
 C         -7.5636991438        0.1606792647       -1.2743965776
 C         -5.8054106611       -1.2502961027       -0.2434016904
 C         -6.3979254357       -2.4847044621       -0.4744380063
 C         -5.6538332914       -3.6216169613       -0.7265374152
 C         -4.2751284328       -3.5255656073       -0.7782690894
 C         -3.6612564145       -2.3122450263       -0.5496197307
 C         -4.4094100739       -1.1691723212       -0.2499390806
 N         -3.7639873018        0.0369191349       -0.0028827135
 C         -2.3531353588        0.0632905078        0.0213447724
 C         -1.6442625166        0.7727972553       -0.9441307251
 C         -0.2651492904        0.7865841639       -0.9235232485
 C          0.4309162386        0.0703853400        0.0468863445
 C          1.8980471763        0.0450769823        0.0398679463
 C          2.5870865475       -1.1757151350        0.0482425610
 C          1.8532051765       -2.3738608802       -0.0781894070
 N          1.2348898472       -3.3281586803       -0.2366708913
 C          3.9983025847       -1.1579103426        0.0822419883
 C          4.8045944506       -2.3767214169        0.1762303640
 C          4.3845020377       -3.4811871201        0.9147390164
 C          5.1767620613       -4.6119935499        0.9812746506
 C          6.3910404034       -4.6542205551        0.3158797585
 C          6.8232617795       -3.5523877135       -0.4055462307
 C          6.0403617550       -2.4168868141       -0.4702790782
 N          4.6691258542       -0.0203112473        0.0017781301
 C          4.0507475538        1.1486194140       -0.0584063045
 C          4.9152983391        2.3240435753       -0.1805430241
 C          4.5210105418        3.4608528614       -0.8836451850
 C          5.3722511396        4.5457518062       -0.9806921650
 C          6.6217945758        4.5091869240       -0.3836221532
 C          7.0280715957        3.3744463914        0.3011836994
 C          6.1849132025        2.2855785758        0.3979460646
 C          2.6428879200        1.2323249035        0.0151232081
 C          1.9639121436        2.4603375297        0.1596681966
 N          1.3849648465        3.4366031896        0.3334086976
 C         -0.2793167661       -0.6383594816        1.0128031892
 C         -1.6580324251       -0.6310656171        1.0080522653
 C         -4.4717678367        1.2097051041        0.2293145398
 C         -3.7856169960        2.3901003401        0.5324030252
 C         -4.4625780155        3.5716646037        0.7489828100
 C         -5.8437513056        3.5976103615        0.6814334767
 C         -6.5266933493        2.4241209910        0.4235572489
 C         -5.8700742035        1.2206691014        0.2032194606
 H         -6.9408421299       -0.4122061097        2.0928339203
 H         -8.1789125706       -1.1663499078        1.0877403446
 H         -8.2280070533        0.5674657773        1.3902809270
 H         -8.2222493671        1.0164348413       -1.1555003138
 H         -6.9331453550        0.3299727342       -2.1453020590
 H         -8.1758600118       -0.7171027703       -1.4603061828
 H         -7.4740446611       -2.5661025705       -0.4607271351
 H         -6.1463938121       -4.5669575053       -0.8940835508
 H         -3.6710064392       -4.3923543337       -0.9996185196
 H         -2.5867144137       -2.2519592977       -0.6126023002
 H         -2.1828996872        1.3099327328       -1.7098829354
 H          0.2773769977        1.3283489533       -1.6840107811
 H          3.4513549972       -3.4498670422        1.4571851004
 H          4.8439664625       -5.4623711893        1.5571429453
 H          7.0022988789       -5.5428470581        0.3650354233
 H          7.7729876127       -3.5797568302       -0.9184861981
 H          6.3631284848       -1.5504733794       -1.0274921868
 H          3.5604025327        3.4908036830       -1.3755668845
 H          5.0584541262        5.4213102364       -1.5286684057
 H          7.2801719106        5.3617094129       -0.4576716263
 H          8.0041122475        3.3404015875        0.7613712688
 H          6.4860174333        1.3952079464        0.9287018369
 H          0.2519144603       -1.1761686419        1.7839158158
 H         -2.2086497448       -1.1733194454        1.7615853455
 H         -2.7100207354        2.3828312889        0.6071385246
 H         -3.9064045402        4.4689314518        0.9749272479
 H         -6.3854387086        4.5168526766        0.8427412854
 H         -7.6053415935        2.4508998163        0.3978702495
