92
 energy: -148.585308519982 gnorm: 0.000054831799 xtb: 6.7.1 (edcfbbe)
O           -7.95501543585722       -3.50867473854195       -0.46698057792769
C           -7.26638760046557       -2.52559578113482       -0.22495719392229
C           -7.86026033692961       -1.24146178547130        0.19101667473315
C           -9.24531449834365       -1.09016909048472        0.16350051397227
C           -9.83038881312965        0.10517093109990        0.53992207946803
C           -9.03661011506677        1.16146755062855        0.96347565642969
C           -7.66144570463971        1.01711358046543        1.01226667141538
C           -7.05949438446200       -0.17578207177723        0.62124912433880
C           -5.58685950287859       -0.30097983847453        0.70711092594574
O           -4.91654388587205        0.51072319848996        1.32635161433226
C           -5.00859005777768       -1.46921416157665        0.02400990774664
C           -5.79879013328559       -2.54628576936877       -0.37493254936674
C           -5.21569991905377       -3.69055677602647       -0.95226192023432
C           -3.86164578694099       -3.79842513807988       -1.11717446787393
C           -3.03346284806155       -2.72934819764980       -0.73413221025058
N           -1.69681369430873       -2.85825709426097       -0.75681275095824
C           -0.93314772416936       -1.84308856490800       -0.41382807087335
C            0.48527916831726       -2.11811506129446       -0.25011327136614
C            1.06433783175554       -3.16755655066759       -0.97306737363732
C            2.40456607108279       -3.45026568787662       -0.86330854060416
C            3.22249845564035       -2.69348706510667       -0.01501077379732
N            4.58192649176750       -2.94937658922050        0.07559464562145
C            5.06950069768134       -4.26013228657460       -0.04866048853329
C            4.38267504200986       -5.32362279734231        0.53591370561190
C            4.87131032127293       -6.61131109803469        0.42328817568794
C            6.04984505469821       -6.85655664446387       -0.26320460070890
C            6.73679940101133       -5.80196369064751       -0.84290210781867
C            6.25187410254091       -4.51163242140407       -0.74294140051062
C            5.49051064734384       -1.89302774243922        0.25298342323578
C            6.60365318059072       -2.05146499494681        1.07695626385131
C            7.51093485182695       -1.01906983387713        1.22306939455129
C            7.32142692932051        0.18080987253057        0.55622065695881
C            6.21419988454382        0.34347771218976       -0.26107490486975
C            5.30176929961112       -0.68296838622823       -0.41338985449358
C            2.63609954430570       -1.67286090374696        0.74447195828360
C            1.29363933255706       -1.39579216864616        0.63498569131908
C           -1.53547170128522       -0.54116368921513       -0.23740335865824
C           -0.80583226045075        0.71839726476296       -0.25837872107486
C            0.38069238529532        0.90606451786810       -0.97422652831681
C            1.04207515356132        2.11172684933252       -0.92967684041745
C            0.53507910721154        3.17987394167506       -0.17990099657062
N            1.22428199974618        4.38321991783723       -0.11018252223691
C            0.52338007897891        5.59659731777217       -0.03070422099938
C           -0.63041583451362        5.79066242490651       -0.78942238568388
C           -1.31836617439396        6.98667002185357       -0.71408388506217
C           -0.86430936075377        8.00626469576388        0.10721300661093
C            0.28450868237752        7.81923465751120        0.85902721519768
C            0.97497123613733        6.62372879556275        0.79675436936205
C            2.62678400749376        4.39117895828858       -0.05833224980493
C            3.31097660200036        3.41875704397705        0.67016005664715
C            4.69041201557734        3.44763211408254        0.74335656212480
C            5.40616095852875        4.44008101478702        0.09286728095222
C            4.73066531443354        5.40573311917424       -0.63621959433552
C            3.35103252109006        5.38459272660495       -0.71581391471880
C           -0.68071622088251        3.00945917045381        0.49260860885534
C           -1.33782484146292        1.80301353926293        0.44895697097324
N           -2.83622524394030       -0.44841675322033       -0.08617427305612
C           -3.61363596149576       -1.52809029663111       -0.22450270137690
H           -9.84339440497444       -1.92909341822090       -0.16144965020518
H          -10.90393720572858        0.21289839019866        0.50569633485638
H           -9.48998639730809        2.09540990567613        1.25945707751053
H           -7.02524586200440        1.82286542359684        1.34840437935481
H           -5.87844481984156       -4.49464125123035       -1.23733463680339
H           -3.40567872164178       -4.69441970929709       -1.50908525944478
H            0.43815329643281       -3.73531649757996       -1.64352328838294
H            2.83924819501584       -4.24726620539034       -1.44776609440823
H            3.47012979876186       -5.13206517686062        1.08144664025848
H            4.33209676000660       -7.42676045413501        0.88271590598673
H            6.43063503965399       -7.86336848683888       -0.34542074701975
H            7.65340438931767       -5.98559072245922       -1.38396068342247
H            6.78421519720449       -3.69190698657267       -1.20268112265522
H            6.75117074931950       -2.98628844897898        1.59759949052761
H            8.36909679647970       -1.15195476450834        1.86544630693492
H            8.03460551873494        0.98325665831388        0.67045690403375
H            6.06176968818042        1.27188320564342       -0.79090670988725
H            4.44439406420658       -0.55872678689258       -1.05830565510567
H            3.24819503303922       -1.11017333568904        1.43331776859019
H            0.85543603505636       -0.63107306352303        1.25831566794674
H            0.77009178457002        0.10908483136255       -1.58955836761283
H            1.95647467248135        2.24655314676996       -1.48797540282846
H           -0.98009630101794        4.99973412603266       -1.43693801180101
H           -2.21038458294095        7.12523097261338       -1.30734246632906
H           -1.40278699851439        8.94043078555049        0.16099950943961
H            0.64215545031146        8.60708137763916        1.50566656806627
H            1.86487178468310        6.47662418666485        1.39105989980615
H            2.75385631015301        2.65084250049049        1.18636425449313
H            5.20665739162397        2.69494247555078        1.32037788797179
H            6.48372053061980        4.46277152258989        0.15569139297060
H            5.28118030410041        6.17991072170665       -1.15039191108960
H            2.82512554661839        6.13705520672841       -1.28498768225304
H           -1.09196142836860        3.82815934051934        1.06403475455589
H           -2.26685853409426        1.66063577535685        0.97970562087976
