63
 energy: -97.248967810761 gnorm: 0.000124870346 xtb: 6.7.1 (edcfbbe)
N            6.07665218845754        2.78803202997881       -0.74974854051868
C            6.32908383723062        1.67342803880462       -0.55143091003710
C            6.75400424193094        0.37485240541646       -0.29247920908305
C            8.14154068477278        0.17135788076839       -0.31526972892862
C            8.69593047495092       -1.03047889081070        0.04671481512592
C            7.85267163227197       -2.08257144097337        0.46427790882691
C            6.49910581701380       -1.91421439356280        0.49527067794659
C            5.86614958963783       -0.70785490385335        0.09331768336601
C            4.45648340591097       -0.59936247334865        0.04878600648449
C            3.60445565054665       -1.44043385086705        0.83667736228045
C            2.24977381807203       -1.32244423465621        0.81210941862260
C            1.61784201350620       -0.34986786488198        0.00001250064613
N            0.24624036664573       -0.20641565896740       -0.00346607593132
C           -0.67967573349093       -1.23242155957834       -0.02603965346452
C           -0.48737768562688       -2.60569748666494       -0.12615887629961
C           -1.60181040402813       -3.41940264611225       -0.15233138585410
C           -2.90623299982428       -2.90115318861277       -0.10141048602001
C           -4.06161264206178       -3.80405076167046       -0.11349019504868
C           -4.02906274511781       -5.01141319869190        0.58675257723466
C           -5.12148068058616       -5.85768300472113        0.58480108473126
C           -6.26517897513336       -5.51984585878081       -0.12142249526719
C           -6.30869725683097       -4.32621386292274       -0.82450707593265
C           -5.22057100823781       -3.47447808655390       -0.81858268306449
C           -3.09284021381676       -1.51777352984762       -0.05168353451537
C           -1.98984004399170       -0.68776567461400       -0.01945478669021
C           -1.83416911524305        0.74431673030271        0.00799664051074
C           -2.73285076850956        1.79222885228183        0.04111711043255
C           -2.25248360359347        3.10284957112097        0.09296744587225
C           -3.18547042237888        4.23394042260658        0.11237271631550
C           -4.38512160821511        4.15997256955830        0.82256149327380
C           -5.26105771553302        5.22858643763376        0.84026209805838
C           -4.96116576138726        6.38892245451232        0.14414578615277
C           -3.77494102399954        6.47389557269152       -0.56768445061434
C           -2.89353795918307        5.40970887439209       -0.58145358342253
C           -0.86713602108140        3.32832932509186        0.14392450033536
C            0.04639980549185        2.29421199691441        0.11690312904432
C           -0.43778298223698        0.99474242821123        0.01635635785675
C            2.43628593274759        0.47648337649210       -0.80683984065938
C            3.79009997225990        0.34897410911711       -0.79072009562548
H            8.77282120145233        0.99776258687924       -0.61593896332956
H            9.76574616009621       -1.17077710243112        0.02146077566029
H            8.28927332975612       -3.02834006122828        0.74997973727559
H            5.87850438775086       -2.75024307904445        0.77976923176484
H            4.05161691255465       -2.13961984075782        1.52529057614228
H            1.64261990893068       -1.91980401964225        1.47616054291964
H            0.50158512853860       -3.02910167393645       -0.20422502602911
H           -1.46784578949150       -4.48603580915083       -0.24669025705410
H           -3.15059425700756       -5.27330828626421        1.15803459626281
H           -5.08332612766508       -6.78459285183039        1.13888844188789
H           -7.11753362437270       -6.18326422093168       -0.12435178396163
H           -7.19528604720183       -4.06047082025257       -1.38214392623862
H           -5.25682987401878       -2.55761759678611       -1.38833724369887
H           -4.08788398813209       -1.10220560389429       -0.02032712876123
H           -3.79412558620941        1.60106219089658        0.00915904968849
H           -4.61737095738168        3.26917729734798        1.38745671620309
H           -6.18152536102404        5.15911133968565        1.40196040046303
H           -5.64798750239947        7.22238311690181        0.15644173764999
H           -3.53767688469834        7.37399922443796       -1.11641867763725
H           -1.98145664632104        5.47767951352824       -1.15606515376983
H           -0.50573685526371        4.34070850793875        0.23873490447283
H            1.10352545815650        2.49609036139351        0.19330734220130
H            1.96686768708857        1.16204994684789       -1.49674789690180
H            4.37931656346977        0.94249290650211       -1.47130776935898
