63
 energy: -97.248976897898 gnorm: 0.000045204089 xtb: 6.7.1 (edcfbbe)
N            6.13425960525026        2.69628311025019       -0.69488904379770
C            6.36260769790953        1.57693709188756       -0.49416098485653
C            6.76047286507755        0.27031706851224       -0.23274687841440
C            8.14453424680602        0.04313613407785       -0.24148223255564
C            8.67477247389240       -1.16891499898209        0.12256264488404
C            7.80924448350558       -2.20782881827571        0.52735262069334
C            6.45856145114992       -2.01638319732338        0.54462571003552
C            5.84998636582408       -0.79779928264562        0.14109493139549
C            4.44287734329669       -0.66500070853683        0.08521512959281
C            3.57003306414330       -1.49809690811796        0.85892272650755
C            2.21782454961098       -1.35798018659060        0.82321275693096
C            1.60873062502987       -0.36879271247567        0.01365266389900
N            0.23952685469914       -0.20437167866423        0.00019372712787
C           -0.70069446086472       -1.21684816633247       -0.03548135904632
C           -0.52714874011957       -2.59169578772132       -0.14811631104932
C           -1.65269688346204       -3.38947557697879       -0.18451299232886
C           -2.94987060736976       -2.85352358320005       -0.13183590188431
C           -4.11731252497951       -3.74064258835375       -0.15320472944237
C           -4.10284048272656       -4.95220294989470        0.54034872548358
C           -5.20635935999292       -5.78386377424093        0.53051054093038
C           -6.34327168598755       -5.42694305757909       -0.17729003891920
C           -6.36878708302566       -4.22900389203230       -0.87389438860619
C           -5.26959414638920       -3.39164999411073       -0.85977149386591
C           -3.11749893368921       -1.46822446556172       -0.07044506725588
C           -2.00307734957604       -0.65401608055920       -0.02753138271275
C           -1.82727320635660        0.77539918035321        0.01443975533119
C           -2.71138171179945        1.83530751841797        0.05731780399598
C           -2.21285916193000        3.13843046634110        0.12313614842876
C           -3.13021912021948        4.28201508247695        0.15533276300327
C           -2.82467488678458        5.45964147923281       -0.52929236172789
C           -3.69151785037645        6.53549921230839       -0.50291946190765
C           -4.87608585080404        6.46043273640154        0.21278410710749
C           -5.18921256635264        5.29831096803793        0.90001947423644
C           -4.32811053941281        4.21797141476351        0.86934065976451
C           -0.82465848040387        3.34424991166906        0.17692919320510
C            0.07449335321339        2.29781707641135        0.14151716790721
C           -0.42754628060235        1.00616011851646        0.02869779655908
C            2.44761154707010        0.45099788671147       -0.77861746753379
C            3.79902135916893        0.30123282177739       -0.75173280489829
H            8.79277120532186        0.85968000342514       -0.53297130765150
H            9.74226374669227       -1.32721736285761        0.10830647862506
H            8.22654883007115       -3.16187957836297        0.81440294223144
H            5.82117775800977       -2.84278188684355        0.81984362539459
H            3.99913758263356       -2.20997730036218        1.54595357683392
H            1.59507253703311       -1.95078832272829        1.47683064550878
H            0.45602767643559       -3.02800412745292       -0.22801303698433
H           -1.53357119205454       -4.45702128246465       -0.28827275854792
H           -3.22957727604339       -5.22878471796479        1.11269766167855
H           -5.18217015192972       -6.71414443517088        1.07970645098538
H           -7.20442229081687       -6.07886325145450       -0.18642543726967
H           -7.25005065453947       -3.94852494306795       -1.43274169946219
H           -5.29202745233935       -2.47101893558626       -1.42414259927337
H           -4.10680713106039       -1.03921835483590       -0.03824663359781
H           -3.77520488289233        1.65936177660190        0.02251926783146
H           -1.91369002596954        5.52013729509478       -1.10649539240087
H           -3.44417504466926        7.43707300933603       -1.04473310300090
H           -5.55115382825843        7.30324647802130        0.23521629122096
H           -6.10831820184112        5.23654145584132        1.46483757544038
H           -4.57027883180239        3.32528764332063        1.42706064168510
H           -0.44948042148573        4.35067229136784        0.28110823739270
H            1.13417126294257        2.48433291148408        0.22126547580271
H            1.99579027089672        1.15016461718061       -1.46660569111810
H            4.40365929444475        0.89086963738427       -1.42202285245788
