  63
        -97.29973783
 N          5.7755100174        2.7750566437        0.0033159310
 C          6.1670044857        1.6965097809       -0.0193051829
 C          6.7117178475        0.3922910915       -0.0191411795
 C          8.1011254322        0.2595941264        0.0055329368
 C          8.6743794292       -0.9951819554        0.0601901123
 C          7.8657584918       -2.1217654430        0.0987979590
 C          6.4888441712       -1.9945277737        0.0773377119
 C          5.8850288765       -0.7426553502        0.0109885063
 C          4.4223421469       -0.6140882022       -0.0200708300
 C          3.6332417362       -1.3489686694        0.8628886247
 C          2.2601982587       -1.2167300248        0.8601151384
 C          1.6421456668       -0.3554505568       -0.0438070794
 N          0.2525143554       -0.2084374371       -0.0433716623
 C         -0.6736415585       -1.2327795995       -0.0423867722
 C         -0.4820047948       -2.6056648909       -0.1027692804
 C         -1.5985260421       -3.4164565803       -0.1113049372
 C         -2.8987079706       -2.8947057874       -0.0779264745
 C         -4.0559972595       -3.8020595523       -0.0833174606
 C         -4.0534849716       -4.9631189101        0.6865604814
 C         -5.1437334664       -5.8129455460        0.6845344329
 C         -6.2540034231       -5.5202249133       -0.0895916747
 C         -6.2672889497       -4.3698007235       -0.8603623204
 C         -5.1794406138       -3.5169378349       -0.8562051043
 C         -3.0845955673       -1.5184237547       -0.0502743607
 C         -1.9770114294       -0.6858645840       -0.0335711901
 C         -1.8196799244        0.7427493522       -0.0165764528
 C         -2.7195435513        1.7959914351        0.0238626922
 C         -2.2379291081        3.0983755297        0.0559085973
 C         -3.1691930924        4.2357885917        0.0967797431
 C         -4.3135035679        4.1884692799        0.8900752120
 C         -5.1876640039        5.2584438150        0.9315514843
 C         -4.9363875819        6.3931870432        0.1785959147
 C         -3.8033927339        6.4508438634       -0.6155481054
 C         -2.9263248836        5.3830724752       -0.6552307493
 C         -0.8547225282        3.3245299000        0.0651523296
 C          0.0588620889        2.2910666094        0.0308884495
 C         -0.4291265639        0.9936094399       -0.0294447859
 C          2.4237305226        0.3628872019       -0.9457537604
 C          3.7972774680        0.2381830013       -0.9279867568
 H          8.7151421301        1.1482860080       -0.0137103169
 H          9.7487776279       -1.0958407154        0.0760844090
 H          8.3121122626       -3.1038714681        0.1436358698
 H          5.8644702560       -2.8760030764        0.0919281051
 H          4.1052314501       -2.0017098385        1.5828203179
 H          1.6594709282       -1.7609924713        1.5731602855
 H          0.5084869584       -3.0320154399       -0.1565251143
 H         -1.4692366578       -4.4870278470       -0.1711483374
 H         -3.1976043631       -5.1884431288        1.3063939122
 H         -5.1288718012       -6.7067150551        1.2914701279
 H         -7.1046922261       -6.1855028978       -0.0922655836
 H         -7.1288934293       -4.1378226847       -1.4696449500
 H         -5.1890357012       -2.6300163372       -1.4731596423
 H         -4.0794376903       -1.1003606134       -0.0241951115
 H         -3.7817673448        1.6042419173        0.0150480868
 H         -4.5057012397        3.3135926747        1.4942456425
 H         -6.0677328160        5.2086890642        1.5564245341
 H         -5.6199618893        7.2286414620        0.2108787296
 H         -3.6036993902        7.3317004311       -1.2084890309
 H         -2.0532048468        5.4281413002       -1.2900348461
 H         -0.4937952181        4.3402408989        0.1283245022
 H          1.1188518938        2.4919613880        0.0670029849
 H          1.9468165590        1.0077630295       -1.6677305044
 H          4.3898610984        0.7894920443       -1.6425063602
