63
 energy: -97.342571479828 gnorm: 0.000066948042 xtb: 6.7.1 (edcfbbe)
N            5.80133998527243        2.77110509747840        0.10135952948690
C            6.18575314750784        1.69017472529219        0.04386722238200
C            6.72257667130112        0.38436462023838        0.00527712995118
C            8.11227988255260        0.24332863872747        0.01899927948574
C            8.67818657836802       -1.01598809739919        0.03728312899547
C            7.86290555611434       -2.13884086500390        0.05212270444211
C            6.48636109291737       -2.00340231165201        0.04148863644450
C            5.88943692507986       -0.74672667390916        0.00959481640603
C            4.42634494064316       -0.61077822893410       -0.01562309930916
C            3.63661497808310       -1.34569130266813        0.86699039835478
C            2.26343739455443       -1.20946023111536        0.86673568362160
C            1.64579871606202       -0.34740112131948       -0.03684167785396
N            0.25322215766479       -0.20098994418353       -0.03731104530899
C           -0.67180407378009       -1.22705185104965       -0.04086454600695
C           -0.47842387668706       -2.60000227249831       -0.10528500965264
C           -1.59372054593394       -3.41283468634297       -0.11471124623415
C           -2.89508230833882       -2.89327147138717       -0.08108758016541
C           -4.05216732644140       -3.80280741058646       -0.08735396633566
C           -4.06069756726402       -4.94888001595759        0.70512245672591
C           -5.15148220407757       -5.79878799403547        0.70469695216600
C           -6.25069109772729       -5.52170384692324       -0.09135942768335
C           -6.25225994403395       -4.38703478647187       -0.88592436215631
C           -5.16442691043558       -3.53340767590505       -0.88224575781720
C           -3.08307961249367       -1.51724424158665       -0.05022399584039
C           -1.97646777920785       -0.68242042212736       -0.02976564019161
C           -1.82155939461108        0.74664443474236       -0.00749711317129
C           -2.72349253859821        1.79882679920347        0.03393159455122
C           -2.24458722367567        3.10239806835079        0.06300561861533
C           -3.17882494541327        4.23906519230836        0.09850530991761
C           -4.30689391227462        4.20674708007946        0.91582352481054
C           -5.18315589646270        5.27580548432316        0.95148521075136
C           -4.95096900862566        6.39380039903795        0.16726379016071
C           -3.83443428063961        6.43610642440976       -0.65147686775152
C           -2.95450832176610        5.36989185336337       -0.68412016777786
C           -0.86161268742237        3.33126695884237        0.07170171783694
C            0.05389246282042        2.29904522630610        0.04038270466308
C           -0.43082848782137        0.99977957165899       -0.01928259504188
C            2.42784441489795        0.37082800516892       -0.93855621262830
C            3.80202846165412        0.24502853998112       -0.92068312567223
H            8.73178288467278        1.12856527282859        0.01981012392645
H            9.75215386414542       -1.12258951314129        0.04419038566107
H            8.30433704168219       -3.12406241610561        0.06934226294581
H            5.85676067701089       -2.88066197538621        0.03850642163337
H            4.10789578018461       -2.00211243271889        1.58360089905588
H            1.66323991434380       -1.75476796386606        1.57937576726179
H            0.51215459653872       -3.02544571883193       -0.15923489522754
H           -1.46290018773751       -4.48341994576866       -0.17460482217943
H           -3.21288801450815       -5.16289670094010        1.34021853951774
H           -5.14586051401575       -6.68051256913553        1.32987880269276
H           -7.10204085239078       -6.18690631218227       -0.09264040117772
H           -7.10510937645809       -4.16745867671034       -1.51264735008827
H           -5.16586081633837       -2.65758979986645       -1.51541949491050
H           -4.07921940358094       -1.10157753968842       -0.02453831992278
H           -3.78582204817230        1.60605697556585        0.02681353831556
H           -4.48522550445985        3.34405999161359        1.54185273681343
H           -6.05021381249424        5.23836890577975        1.59581945193418
H           -5.63695274837207        7.22802960746603        0.19421968711320
H           -3.64952963979307        7.30407323156859       -1.26855242727785
H           -2.09309259257482        5.40357981934204       -1.33585894574487
H           -0.50269130018059        4.34838830632218        0.13024445487164
H            1.11347768756676        2.50346807546319        0.07589065891919
H            1.95302700786432        1.01757655127871       -1.66061808147107
H            4.39506556365666        0.79871129200728       -1.63388207606473
