71
 energy: -107.400813179122 gnorm: 0.000095169147 xtb: 6.7.1 (edcfbbe)
C           -6.41274053032769        0.03832210051941       -1.31400194717641
C           -5.73570685839228       -0.07738001073444        0.06373233402762
C           -6.79553318773396       -0.12949034246883        1.17952537446127
C           -4.86653060022644        1.14493031336477        0.28171616553021
C           -5.45121557708489        2.40399487672067        0.30976075725482
C           -4.71452475861190        3.55022233184520        0.54086939313341
C           -3.35634237140346        3.44379824011655        0.77944943542313
C           -2.75199650139426        2.20521709964896        0.75594514534238
C           -3.48634772908884        1.04954018233672        0.47596663335528
N           -2.84091806835855       -0.18026609973571        0.44944534626189
C           -1.43140121056704       -0.18731567794795        0.45730537990992
C           -0.70172187789487       -0.70826842654181        1.50018963137827
C            0.70231554606668       -0.70991268726096        1.50225461661906
C            1.43607525872865       -0.19035496132313        0.46171292042703
N            2.84587519947815       -0.18612117230412        0.45819817441528
C            3.53994158070477       -1.37202563409168        0.25283264303009
C            2.84893098737733       -2.58485068610133        0.18095618658005
C            3.51706917842508       -3.77683151003788       -0.00301742661554
C            4.89424569360696       -3.78192676076354       -0.12694374254083
C            5.57794173833861       -2.58158969433359       -0.08646263267042
C            4.92995817989995       -1.36699897669848        0.09543163056021
C            5.74161616639247       -0.08607893721242        0.08032215038082
C            6.42310981300523        0.04176045984829       -1.29416381477957
C            6.79785027241916       -0.15176951964000        1.19876944784003
C            4.87452925993254        1.13610442538904        0.30746125356500
C            5.46186200052799        2.39352715558677        0.34928130290433
C            4.72664080826756        3.53939424726260        0.58692987138035
C            3.36695486130729        3.43414657091823        0.81730397332427
C            2.76001657195189        2.19712619919602        0.78077094725261
C            3.49340934515474        1.04209930182230        0.49574304965761
C            0.72393738543779        0.34812498034959       -0.63524793139537
N            1.22435682057712        0.87034493658576       -1.75450699983769
S            0.00900670431322        1.31538095058816       -2.70611878739698
N           -1.21035143905876        0.87268504686574       -1.75855844544142
C           -0.71465134817531        0.34933315988811       -0.63770775148976
C           -3.53737342214202       -1.36666754796383        0.25433904015175
C           -2.84930160042219       -2.58183981391678        0.19476240106337
C           -3.52011925934459       -3.77401956251127        0.02223968411565
C           -4.89719953118057       -3.77716303132454       -0.10269122995070
C           -5.57786568673450       -2.57477069776020       -0.07577389566360
C           -4.92710427463468       -1.35992956569611        0.09433012522556
H           -7.01736278586870        0.93915254139178       -1.37348239105736
H           -7.05491279675268       -0.81714301709786       -1.50500385195365
H           -5.65456941038739        0.08089932554597       -2.09358421656307
H           -6.30760217715057       -0.21144497366198        2.14904359545922
H           -7.45270107348913       -0.98518081103187        1.05287721684762
H           -7.40584002636745        0.76915079424364        1.17828106849000
H           -6.51405596304824        2.49920651629564        0.14634025786715
H           -5.19943625298970        4.51446867832073        0.54924164769322
H           -2.76603140653299        4.32310064507967        0.99043900195221
H           -1.69587011229711        2.12997038791779        0.96642441157266
H           -1.22678072369198       -1.12124401549965        2.34852823812891
H            1.22400465011262       -1.12465012713423        2.35180452683228
H            1.77298004930743       -2.59395808381764        0.26004818768746
H            2.95817040551427       -4.69947282435544       -0.05244994021876
H            5.43042306578105       -4.70814608943954       -0.26629620736010
H            6.65057470945450       -2.59668240474798       -0.20668530467325
H            7.02643411022037        0.94401135635108       -1.34440238014479
H            7.06736254487712       -0.81107390111231       -1.48986750671138
H            5.66746971823860        0.08940004245547       -2.07591954706365
H            6.30673290198877       -0.23898188757556        2.16622876172069
H            7.45131915066989       -1.00959265072209        1.06736127504076
H            7.41240174477749        0.74396023203505        1.20621620816747
H            6.52567208190094        2.48779005479291        0.19170911720411
H            5.21372043304714        4.50239533908579        0.60619484369444
H            2.77745694147544        4.31308606059328        1.03206982166028
H            1.70254263137918        2.12245245060241        0.98468653112077
H           -1.77343656834169       -2.59299608858828        0.27446383189263
H           -2.96332662353162       -4.69839965430108       -0.01734118843181
H           -5.43552470944436       -4.70348772786297       -0.23271398331114
H           -6.65034220880461       -2.58840814873348       -0.19754073160008
