71
 energy: -107.400809197656 gnorm: 0.000064266024 xtb: 6.7.1 (edcfbbe)
C           -6.39430223356326        0.06753348278085       -1.51826781456910
C           -5.73451678976152        0.00628392990275       -0.12867565666906
C           -6.80826535144673       -0.07079940689593        0.97219772021191
C           -4.91734010027373        1.26828676745328        0.06955144002421
C           -5.55779953689424        2.50015904448137        0.04446350220121
C           -4.86873347152531        3.69107157536205        0.17358931529922
C           -3.49325231323279        3.66113147333978        0.31166863231688
C           -2.83262495801929        2.45129795088606        0.34202572929749
C           -3.52940128601410        1.24365779629054        0.24296526692022
N           -2.84335039794742        0.03626920054046        0.29591890238902
C           -1.43384139009609        0.03146496791846        0.30595956644304
C           -0.70186306596109        0.41654521092812        1.40472459258794
C            0.70216486829692        0.41672734637869        1.40448444057748
C            1.43382369171859        0.03162925718762        0.30553046688188
N            2.84335746073917        0.03642524612900        0.29515379459543
C            3.49799676601653       -1.18165761674959        0.16351573804593
C            2.77426621453825       -2.36887091026593        0.30459036064503
C            3.38758988617216       -3.59594086107441        0.17043663640521
C            4.74440975255601       -3.66103859057089       -0.08993022135994
C            5.47080997017011       -2.48912338209120       -0.18438101167287
C            4.87687535037793       -1.24101049497247       -0.05271825374631
C            5.73462716946050        0.00617393870158       -0.12851993749832
C            6.39514170212912        0.06584582835453       -1.51783276945204
C            6.80780577292767       -0.06954907229770        0.97300399279496
C            4.91727630414405        1.26835621060550        0.06784969404497
C            5.55759171030503        2.50027082354027        0.04143944790779
C            4.86834532977592        3.69124927775707        0.16901682831773
C            3.49284675837623        3.66131493322020        0.30693508383758
C            2.83235448476246        2.45144074352354        0.33858793249922
C            3.52930809925450        1.24378629497461        0.24098726466883
C            0.71912080777564       -0.36935972752903       -0.84734716159349
N            1.21703035353631       -0.75069539655055       -2.02314686413603
S           -0.00044293031688       -1.07510192418854       -3.01981869094021
N           -1.21765672134554       -0.75075790166845       -2.02281781277229
C           -0.71944671267076       -0.36943675698197       -0.84714148499246
C           -3.49795096974475       -1.18171288995762        0.16300145498013
C           -2.77425586475879       -2.36902704452216        0.30342559539093
C           -3.38744455041602       -3.59599407636633        0.16775321982906
C           -4.74410923548726       -3.66090291799526       -0.09348569037879
C           -5.47053172180064       -2.48893743881264       -0.18709646760947
C           -4.87672889558467       -1.24092627686027       -0.05386091233470
H           -7.02877362965498        0.94494202240729       -1.60942121989573
H           -7.00338666797876       -0.81443993488474       -1.69647081681360
H           -5.62624229866092        0.11625009429985       -2.28776422177555
H           -6.33235515625942       -0.11412919588047        1.95015039748646
H           -7.42533126530832       -0.95670775964540        0.85213061719257
H           -7.45732341757635        0.79988231068092        0.94493006163198
H           -6.62868571494337        2.53753471622691       -0.08600269406253
H           -5.39916750940862        4.63075779185044        0.15343536511457
H           -2.92963962236597        4.57864036296071        0.39287964890776
H           -1.75771888011255        2.44412620626503        0.43373847248942
H           -1.22503428612751        0.72280206679002        2.29826072813155
H            1.22560052412141        0.72315924644367        2.29781167767275
H            1.71943245879661       -2.32831139347611        0.53069414640119
H            2.80547587493548       -4.49938352484413        0.27577526019381
H            5.23628052682088       -4.61498816361874       -0.20411584116160
H            6.53272166972083       -2.55481166905410       -0.36724112500478
H            5.62748771548577        0.11371730559045       -2.28778685052247
H            7.02968375466556        0.94313316123732       -1.60964039576493
H            7.00430419223033       -0.81633606550732       -1.69473089129746
H            6.33138272888922       -0.11183525786162        1.95075241338419
H            7.42503915128878       -0.95552053601459        0.85425810790657
H            7.45676409668915        0.80118908520713        0.94509800378712
H            6.62850365944984        2.53762126480432       -0.08882730989739
H            5.39866869985578        4.63097622047060        0.14782359645609
H            2.92912369327579        4.57885694713153        0.38700024487262
H            1.75743607755874        2.44419223712628        0.43020233686440
H           -1.71956333000088       -2.32862676460277        0.53022180246188
H           -2.80536050172630       -4.49951278681831        0.27260119850097
H           -5.23586034663254       -4.61476380487386       -0.20892613837546
H           -6.53234515319059       -2.55449279632006       -0.37057244428254
