71
 energy: -107.346353505880 gnorm: 0.000039472592 xtb: 6.7.1 (edcfbbe)
C           -6.42498359565035       -0.02497334559703       -1.28586609674899
C           -5.73536031837867       -0.10490453844306        0.08914502947359
C           -6.78641692288473       -0.15008097777455        1.21441869946398
C           -4.88156566323523        1.13003324003525        0.27660853187308
C           -5.48479876274883        2.38020595717089        0.31538616641592
C           -4.76029367371388        3.53517533291243        0.53950276370995
C           -3.39731534714280        3.44731520215261        0.77335148588000
C           -2.77463143178868        2.22127196769713        0.73429766502541
C           -3.49252833291166        1.05503577015013        0.43877979942152
N           -2.82581049905414       -0.15677860496814        0.37291306649383
C           -1.41971694900468       -0.15257412524433        0.36861750756794
C           -0.68413985643981       -0.80380832432551        1.38727649136813
C            0.68470479774736       -0.80497153154809        1.38919977966803
C            1.42432690806036       -0.15529457218899        0.37243254578585
N            2.83034455246026       -0.16213456886367        0.38054779191499
C            3.51259599945680       -1.35642099755574        0.23588180546303
C            2.80120398810364       -2.56025567300195        0.13249416815232
C            3.45516492980727       -3.76696679499017        0.02464862150101
C            4.83924432144926       -3.80062540399135       -0.00873003002923
C            5.54489143687778       -2.61259506161802        0.03061826358880
C            4.91239370634681       -1.38218269794715        0.14587983427628
C            5.74075650388766       -0.11600720265085        0.10417415589955
C            6.43381244622207       -0.04059068936259       -1.26936961794470
C            6.78903904371801       -0.16028069404781        1.23207366974244
C            4.88868461621471        1.12083125407835        0.28674795514832
C            5.49400161228572        2.37003765910561        0.32407372627889
C            4.77105167856734        3.52673487124390        0.54423304824694
C            3.40749448917115        3.44168224533787        0.77577579803640
C            2.78276501787776        2.21665469803449        0.73799519891253
C            3.49914673231442        1.04857650738348        0.44601280570111
C            0.72520160207736        0.51459006782094       -0.64504296151251
N            1.24923126374978        1.13760300680563       -1.69542218408542
S            0.00798180213164        1.69970651595652       -2.63415878080866
N           -1.23677297309531        1.14041005749445       -1.69843322517991
C           -0.71665765153394        0.51613364906897       -0.64683228059304
C           -3.50977147089292       -1.34956144506496        0.22409465611932
C           -2.80013570909636       -2.55439156693283        0.12051692975578
C           -3.45587374181750       -3.75970992766740        0.00790616369089
C           -4.83989266278567       -3.79082835642904       -0.03004672746123
C           -5.54360415813198       -2.60166861564334        0.00991511894270
C           -4.90930957870216       -1.37263301236955        0.12994321428025
H           -7.04529257571149        0.86438162499610       -1.35367010197999
H           -7.05237954434644       -0.89558368055852       -1.45658627529980
H           -5.67347548521212        0.01909861674414       -2.07147422863071
H           -6.29115487486945       -0.21010334904448        2.18177755929774
H           -7.43520658409859       -1.01435289232621        1.10628311261003
H           -7.40715677109752        0.74086946288400        1.20211398911308
H           -6.55074442915225        2.46060735445243        0.16584057064778
H           -5.25787627266746        4.49280590974560        0.55232035673517
H           -2.82182711453865        4.33420298341221        0.99087991003176
H           -1.71861890633258        2.15557977143726        0.94065315173133
H           -1.23063845808497       -1.26339007633861        2.19709487680680
H            1.22810097215762       -1.26532430266298        2.20066758522448
H            1.72364036602802       -2.54105430314500        0.12055987604614
H            2.88397902719559       -4.68027254044032       -0.04610359587766
H            5.36362980678133       -4.74018797087175       -0.09154321940061
H            6.62116085930088       -2.65120611865275       -0.03953046510362
H            7.05585889558031        0.84749898811685       -1.33782241954829
H            7.06006546705510       -0.91272634531380       -1.43647853253476
H            5.68427297609527        0.00291443339698       -2.05688947660303
H            6.29135637620315       -0.21723095365004        2.19837559045333
H            7.43669589703178       -1.02584121266490        1.12752512082030
H            7.41125223326708        0.72963396405929        1.21918107804320
H            6.56038888571325        2.44826095141750        0.17652636490813
H            5.27024196918329        4.48354530583571        0.55589276773692
H            2.83313474252485        4.32999650470852        0.99044639586165
H            1.72627094638069        2.15321958629132        0.94257501049729
H           -1.72250338057482       -2.53702902306362        0.11221118155446
H           -2.88608213172394       -4.67387427066104       -0.06298888035762
H           -5.36565252253846       -4.72926816376165       -0.11676244945067
H           -6.61972050454516       -2.63824435985767       -0.06360183682486
