71
 energy: -107.346361442439 gnorm: 0.000094382857 xtb: 6.7.1 (edcfbbe)
C           -6.47434540087323       -0.02084638651892       -1.22625823769472
C           -5.74373677813615       -0.14470254337416        0.12403755229092
C           -6.76072547334875       -0.23238280444606        1.27788363846267
C           -4.88851751045766        1.08649640137416        0.32937114809330
C           -5.49451729428745        2.33268975689265        0.41956665783858
C           -4.76904145629051        3.48290454919150        0.66389799623431
C           -3.40124118990516        3.39266713417010        0.86633949463769
C           -2.77597899482669        2.17050778463383        0.77752984920646
C           -3.49619389051017        1.01106700054432        0.46163566944133
N           -2.82861290376437       -0.19668928346787        0.34714991896927
C           -1.42243925115274       -0.19395908534018        0.33746419815515
C           -0.68664280741462       -0.87962440181734        1.33327914762497
C            0.68205500022328       -0.88070192643636        1.33535150383250
C            1.42171375382687       -0.19689949529380        0.34116468091423
N            2.82777540946478       -0.20075422415524        0.35354951841287
C            3.51243329187574       -1.38927396922920        0.17671236740894
C            2.80272448771257       -2.58885046557913        0.02384333771998
C            3.45836480381903       -3.79130289566706       -0.11648822941917
C            4.84277780229413       -3.82399316945730       -0.13354081401393
C            5.54752350611000       -2.63805202555117       -0.04536173121796
C            4.91318726176089       -1.41215615085931        0.10304016178275
C            5.74165850257661       -0.14549080911326        0.11616880509201
C            6.45905975801205       -0.02593915105896       -1.24161247557864
C            6.76980027311428       -0.22655179800502        1.26051860784962
C            4.88615678674969        1.08501167298906        0.32413872550468
C            5.49064631540230        2.33238426944405        0.40796990868210
C            4.76468059485161        3.48194718503357        0.65391656815876
C            3.39827169887399        3.38992893437164        0.86487446056512
C            2.77448085130486        2.16662681426830        0.78194304942607
C            3.49470857122580        1.00783436790880        0.46365905352124
C            0.72253180670290        0.50332412879902       -0.65559743212560
N            1.24652521506241        1.15886569743709       -1.68600690585298
S            0.00531820643477        1.74977844831513       -2.60699593229464
N           -1.23946293199374        1.16195478569972       -1.68901535329266
C           -0.71953691928495        0.50501401076494       -0.65736204889521
C           -3.51237949356339       -1.38511887466621        0.16677434184776
C           -2.80129671092437       -2.58269296618648        0.00462979371430
C           -3.45555197611108       -3.78540436519004       -0.13974577421506
C           -4.83998616489430       -3.82023937371105       -0.15127632657748
C           -5.54632159174602       -2.63598236209972       -0.05353637660018
C           -4.91332744753752       -1.40986029861642        0.09861239959588
H           -7.09977691489285        0.86726253611605       -1.24518969495654
H           -7.10370015119601       -0.88771005418070       -1.40819749908946
H           -5.74689391107302        0.05344382950284       -2.03197839825197
H           -6.23665620756421       -0.32293390484333        2.22753683549218
H           -7.40920876218611       -1.09562008494080        1.15964279683384
H           -7.38436473072113        0.65593136937863        1.31421754825663
H           -6.56374829237705        2.41354210671566        0.29593277296667
H           -5.26914271177209        4.43783405770884        0.71689161144006
H           -2.82379672138625        4.27450729748162        1.09869210172356
H           -1.71587273058757        2.10290566405399        0.96032376618402
H           -1.23320934143744       -1.36671683589075        2.12678598850199
H            1.22536141837523       -1.36799773222627        2.13096606381815
H            1.72536851114060       -2.56896881523330       -0.00082931816514
H            2.88843327352308       -4.70166144334480       -0.22511199438659
H            5.36844963609675       -4.76031648405000       -0.24116906330103
H            6.62464272003605       -2.67437556537575       -0.10264188542560
H            7.08145871246997        0.86404220313807       -1.27063984538976
H            7.08918827930719       -0.89190179044765       -1.42529426776343
H            5.72373410469050        0.04232379189478       -2.04067734448203
H            6.25504481704472       -0.31453140023130        2.21549298030664
H            7.41919960137808       -1.08868104173569        1.13949081813771
H            7.39189448767898        0.66316074653350        1.28746160704258
H            6.55896289896260        2.41477323705858        0.27759120590555
H            5.26346018148252        4.43785141198421        0.70159717673968
H            2.82080658180340        4.27129113531263        1.09897920624979
H            1.71557579304835        2.09747947717712        0.97127626438595
H           -1.72406676921747       -2.56074440823056       -0.02413827763356
H           -2.88461420401329       -4.69420933671709       -0.25579380874374
H           -5.36456547616560       -4.75683135489630       -0.26181543700683
H           -6.62365825360133       -2.67380623366824       -0.10577834691981
