92
 energy: -138.301602390709 gnorm: 0.000060425719 xtb: 6.7.1 (edcfbbe)
C            6.60453443778355       -2.66573340308354        0.00101775873478
C            5.74508375454884       -1.38701728870236       -0.00328691308308
C            6.64999610014050       -0.14089790593554       -0.00861427898048
C            4.89357857172211       -1.38100515048284       -1.25978271832187
C            5.50799749441205       -1.33953226150205       -2.50398742341048
C            4.78453513392721       -1.33690507872114       -3.68287764592148
C            3.40313253874270       -1.37821813828906       -3.62852623285437
C            2.76741219170218       -1.42699637359298       -2.40528219809272
C            3.49630011172179       -1.43086635203939       -1.21306951699572
N            2.82812891890227       -1.50528157303750       -0.00120196495094
C            1.40943646461924       -1.50532861784887       -0.00041343967534
C            0.70272707944783       -2.68017861226361       -0.00055344258271
C           -0.70128590907295       -2.68054779618876        0.00019977363951
C           -1.40862316581622       -1.50607522665824        0.00027268658270
N           -2.82731410289734       -1.50684585457247        0.00110429935359
C           -3.49698228317296       -1.42487188233531       -1.20941941568050
C           -2.76948215704730       -1.41341229139775       -2.40241541862739
C           -3.40664144971381       -1.35666537501315       -3.62456291444134
C           -4.78811638761631       -1.31524464040392       -3.67701625373074
C           -5.51023164032738       -1.32622031836988       -2.49734908145876
C           -4.89434296994122       -1.37556148087150       -1.25415368939943
C           -5.74436789645227       -1.39112906775739        0.00327998941223
C           -6.60273600804420       -2.67056722694869       -0.00050605389240
C           -6.65034516286359       -0.14578031631365        0.00817436039251
C           -4.89280884513841       -1.38390996302703        1.25973594411053
C           -5.50720544564281       -1.34251610734449        2.50395431097275
C           -4.78368691467316       -1.33878253707031        3.68280769735096
C           -3.40225053708923       -1.37889850189971        3.62840484684390
C           -2.76654729076043       -1.42761786969282        2.40514992865593
C           -3.49548914932109       -1.43255951099255        1.21297420380951
C           -0.71196306480214       -0.26820948549793       -0.00044890266909
N           -1.39657862673157        0.88297649305378       -0.00285812087415
C           -0.71566561600142        2.01289442163251       -0.00253996221119
C           -1.43405100051147        3.26661197908485       -0.00858329788630
C           -2.83226538085323        3.25425059811269       -0.01870467482190
C           -3.54544036333907        4.43044392431314       -0.02674765720991
C           -2.86189536324743        5.64148702351971       -0.02525783133915
C           -1.48363177893336        5.66766204514934       -0.01495787078355
C           -0.72984038315231        4.48791534542772       -0.00578239431361
C            0.72750480511727        4.48829692503198        0.00598432148675
C            1.48068047045929        5.66843695101675        0.01516890364244
C            2.85895765735968        5.64298131613407        0.02548443975108
C            3.54313488249565        4.43229514493723        0.02697211871091
C            2.83057272818644        3.25573070306268        0.01892540052621
C            1.43235254187351        3.26736171752830        0.00879243434657
C            0.71462319249052        2.01326903156776        0.00272313261482
N            1.39612762529700        0.88370748785246        0.00298130782797
C            0.71211360260555       -0.26783580535329        0.00046936047826
C            3.49767747935028       -1.42232358215903        1.20932344040471
C            2.77012186859743       -1.41127416211335        2.40228892006141
C            3.40717730695303       -1.35357892834228        3.62444645923227
C            4.78860678424569       -1.31075026803969        3.67694086196072
C            5.51077970994059       -1.32139817441187        2.49730674792442
C            4.89498955801097       -1.37171797155257        1.25410124497655
H            5.96291276157368       -3.54535085248952        0.00475928931592
H            7.23793218445604       -2.70730448637083       -0.88090337685268
H            7.23907937800926       -2.70061402890628        0.88239925586182
H            7.28806104494543       -0.12808021693313       -0.88740250890587
H            6.03993956689058        0.76024943259377       -0.01361016488101
H            7.28662575029695       -0.11942479194555        0.87104353584742
H            6.58535651729246       -1.31151345755843       -2.56247604909793
H            5.29536501602544       -1.30425103224032       -4.63337742061162
H            2.81655135980911       -1.37514875879023       -4.53577752314480
H            1.68842998863791       -1.46211140923291       -2.36886924016451
H            1.23498533984388       -3.61976318319420       -0.00118946312488
H           -1.23305329027158       -3.62041147554424        0.00068381770564
H           -1.69046834181065       -1.44907281851631       -2.36747373282615
H           -2.82113302022992       -1.34762629849221       -4.53246711942698
H           -5.30005698582381       -1.27640766398410       -4.62668381433403
H           -6.58768213805049       -1.29853969285794       -2.55443513134190
H           -5.96036025794911       -3.54963019623982       -0.00400363045294
H           -7.23733059356395       -2.70629725067771       -0.88181845630138
H           -7.23601779081336       -2.71237995985537        0.88148704131334
H           -7.28834081329451       -0.13313470701251        0.88701781740008
H           -6.04104600207397        0.75587953666173        0.01273514106100
H           -7.28707162121118       -0.12521275885381       -0.87143681298128
H           -6.58458555006365       -1.31541455562353        2.56248441279706
H           -5.29449876392178       -1.30619426793781        4.63331931063895
H           -2.81562980235594       -1.37497269457645        4.53562744074224
H           -1.68753754780008       -1.46185341670686        2.36869934925831
H           -3.32586277164170        2.29533945446731       -0.02037403471823
H           -4.62478620480596        4.41436549491973       -0.03457704136684
H           -3.41306864683687        6.57021002819750       -0.03221267544521
H           -0.98977619809229        6.62549074395398       -0.01471606118261
H            0.98632539197526        6.62600801241430        0.01486570784282
H            3.40964755712756        6.57199121977217        0.03240106015675
H            4.62248877400909        4.41677816649983        0.03484761151513
H            3.32466672138727        2.29707643868996        0.02065229397883
H            1.69114526091167       -1.44802543077204        2.36732001076910
H            2.82162388817266       -1.34487044574381        4.53232516904240
H            5.30047038351995       -1.27114291068364        4.62661844012552
H            6.58820233823628       -1.29270477400673        2.55442997220191
