  70
       -127.90998269
 O         -3.5064583724       -5.1387726299       -1.7209327992
 C         -3.7031094182       -4.1996436123       -0.9595844438
 C         -5.0068070242       -3.9581902314       -0.3221220074
 C         -6.0602070714       -4.8265233764       -0.6153830616
 C         -7.3060507645       -4.6371610730       -0.0533729794
 C         -7.5219565700       -3.5751506986        0.8177208596
 C         -6.4909739682       -2.7096867623        1.1193761135
 C         -5.2236874053       -2.8881708885        0.5592355656
 C         -4.1607641545       -1.9426275140        0.9214893063
 O         -4.3286540460       -1.0227638627        1.7106394354
 C         -2.8589411323       -2.1725618421        0.2662328048
 C         -1.8273439427       -1.2852765224        0.5366730507
 C         -0.5730363821       -1.4499110327       -0.0426473063
 N          0.4444366192       -0.5454001175        0.2394579767
 C          0.1376658723        0.8004422438        0.4199308597
 C          0.8526271401        1.5843053133        1.3398691321
 C          0.5290243859        2.9078870232        1.5093208580
 C         -0.5159131182        3.4963647594        0.7885811821
 C         -1.2167578027        2.7203336122       -0.1471662199
 C         -0.8870826460        1.3838711131       -0.3187832106
 C         -2.3091437163        3.2772471255       -0.9705715663
 O         -2.9026867413        2.5942425212       -1.7928561945
 C         -2.6225384637        4.6927582588       -0.7335188303
 C         -3.6507707245        5.2800878729       -1.4734339539
 C         -3.9760987588        6.6094639796       -1.2955174272
 C         -3.2792019169        7.3772874130       -0.3700127785
 C         -2.2622770864        6.8100309477        0.3713706790
 C         -1.9216758572        5.4669995504        0.2037142062
 C         -0.8346493090        4.9111560263        1.0268004041
 O         -0.2258734969        5.5812058825        1.8499364158
 C          1.7624493870       -0.9789142966        0.3153835654
 C          2.0705094697       -2.2550662872        0.8196077625
 C          3.3762802817       -2.6727659280        0.8768707247
 C          4.4224037596       -1.8431488204        0.4557139090
 C          4.1159316874       -0.5756773023       -0.0647567362
 C          2.7942698845       -0.1556476113       -0.1240090193
 C          5.1594460788        0.3420193514       -0.5625186133
 O          4.8799516814        1.4423365737       -1.0194574845
 C          6.5366103749       -0.1571844936       -0.4687782791
 C          7.5736597723        0.6628738278       -0.9202481406
 C          8.8844745492        0.2366064506       -0.8620413113
 C          9.1850206819       -1.0192494255       -0.3465420720
 C          8.1722227438       -1.8399810744        0.1060483600
 C          6.8405108119       -1.4236780548        0.0540981218
 C          5.8017294652       -2.3351347475        0.5585608910
 O          6.0626434337       -3.4376388415        1.0238123401
 C         -0.3509974124       -2.5416020683       -0.9001151333
 C         -1.3689105082       -3.4230390007       -1.1649818539
 C         -2.6427960435       -3.2468341742       -0.6120301078
 H         -5.8677717083       -5.6429660736       -1.2959305584
 H         -8.1120779972       -5.3146718883       -0.2918759348
 H         -8.4953615602       -3.4267882089        1.2605836017
 H         -6.6328926932       -1.8777170508        1.7934791774
 H         -2.0184953385       -0.4734961122        1.2208156227
 H          1.6378929438        1.1329845090        1.9261233965
 H          1.0576376527        3.5230234176        2.2217565542
 H         -1.4356996012        0.8137500934       -1.0519451504
 H         -4.1768872702        4.6627744755       -2.1867401082
 H         -4.7710448496        7.0511247342       -1.8773718198
 H         -3.5318929936        8.4173651247       -0.2288940424
 H         -1.7077441261        7.3857186574        1.0978481910
 H          1.2756157405       -2.8870952180        1.1846564542
 H          3.6337232588       -3.6439506369        1.2725682736
 H          2.5854152357        0.8169586716       -0.5416494082
 H          7.3144402068        1.6336429556       -1.3167772347
 H          9.6752450477        0.8792782742       -1.2187847325
 H         10.2102779145       -1.3542138117       -0.2992055345
 H          8.3804014061       -2.8190180420        0.5122182489
 H          0.6130694414       -2.6601874257       -1.3701688616
 H         -1.2230059585       -4.2582465435       -1.8335892787
  70
       -127.90985357
 O         -4.9917887189       -3.8025186443       -1.7785289054
 C         -4.0576320418       -3.9526038620       -1.0006905334
 C         -3.7886600255       -5.2320251854       -0.3259889195
 C         -4.6347787498       -6.3114725519       -0.5877563031
 C         -4.4213247660       -7.5352515359        0.0128118601
 C         -3.3557316009       -7.7029000586        0.8900310812
 C         -2.5109194619       -6.6460954336        1.1594248128
 C         -2.7151198702       -5.3999956029        0.5617352166
 C         -1.7938744447       -4.3063204031        0.8944235602
 O         -0.8632474291       -4.4357811442        1.6781779532
 C         -2.0665633184       -3.0213658389        0.2221272545
 C         -1.2239180055       -1.9523885922        0.4910476535
 C         -1.4421721816       -0.7071233480       -0.0904600520
 N         -0.5989282042        0.3545312104        0.2124491437
 C         -1.0936777007        1.6508564674        0.2814498276
 C         -2.3974632844        1.9050735624        0.7427262823
 C         -2.8638773385        3.1944805684        0.8034483772
 C         -2.0575923057        4.2769354847        0.4316769299
 C         -0.7627179683        4.0238361847       -0.0481591188
 C         -0.2953642169        2.7192530263       -0.1157201696
 C          0.1386088664        5.1065454713       -0.4884994668
 O          1.2632086169        4.8719495322       -0.9097088882
 C         -0.4064149057        6.4649015223       -0.3805910402
 C          0.3976213957        7.5371834001       -0.7743977833
 C         -0.0702688734        8.8327826752       -0.6988414290
 C         -1.3527409283        9.0818117610       -0.2232071075
 C         -2.1584664324        8.0333394691        0.1716913522
 C         -1.7003552376        6.7163997226        0.1013258560
 C         -2.5978810324        5.6374227145        0.5437462357
 O         -3.7266135388        5.8527014089        0.9670084572
 C          0.7583873278        0.1232781646        0.4266901564
 C          1.4650958549        0.8620035239        1.3893278635
 C          2.8067609988        0.6394920580        1.5744259835
 C          3.4906023886       -0.3221178119        0.8226749561
 C          2.7887068178       -1.0525859054       -0.1482596479
 C          1.4303294027       -0.8315678979       -0.3287078304
 C          3.4513491570       -2.0541666281       -1.0081194284
 O          2.8299450383       -2.6862815599       -1.8503887954
 C          4.8939507679       -2.2238200204       -0.7869875292
 C          5.5864018314       -3.1404272352       -1.5809266775
 C          6.9449526881       -3.3247194013       -1.4224039076
 C          7.6376371386       -2.5976099859       -0.4615425527
 C          6.9664485296       -1.6914448754        0.3344234996
 C          5.5929918442       -1.4928818474        0.1856541335
 C          4.9268411358       -0.5180708708        1.0645859669
 O          5.5270532604        0.1028734011        1.9314557700
 C         -2.5309937305       -0.5385497938       -0.9638512569
 C         -3.3644091962       -1.5951718172       -1.2320911742
 C         -3.1433482232       -2.8553970796       -0.6641175528
 H         -5.4542758871       -6.1566699942       -1.2742219316
 H         -5.0829210170       -8.3613800830       -0.2002405693
 H         -3.1886610206       -8.6587429085        1.3634362278
 H         -1.6770307647       -6.7506705781        1.8379766391
 H         -0.4090018316       -2.1048634239        1.1811971809
 H         -3.0128892106        1.0832988385        1.0751429427
 H         -3.8571537048        3.4100080627        1.1682011650
 H          0.6979605769        2.5533062164       -0.5025252842
 H          1.3899650743        7.3170905595       -1.1400129061
 H          0.5607694387        9.6514361538       -1.0104972542
 H         -1.7201802533       10.0950833022       -0.1616478125
 H         -3.1575791675        8.2020058707        0.5460050681
 H          0.9414412110        1.5885953746        1.9909011268
 H          3.3657163511        1.1888929001        2.3167068733
 H          0.9157250670       -1.3998299961       -1.0876670762
 H          5.0267591747       -3.6926079139       -2.3215651654
 H          7.4679904587       -4.0329801946       -2.0471902010
 H          8.7004341991       -2.7399960360       -0.3358049057
 H          7.4818521052       -1.1162589571        1.0895566893
 H         -2.6861262454        0.4168244419       -1.4410149396
 H         -4.1974894111       -1.4896965908       -1.9109399960
  70
       -127.90938398
 O         -2.3922252297       -5.9371471387        1.1653772762
 C         -2.8445683641       -4.9343032770        0.6278029325
 C         -4.1311686767       -4.9326224528       -0.0863499293
 C         -4.8481019163       -6.1278559272       -0.1674279895
 C         -6.0637335460       -6.1772601353       -0.8186921730
 C         -6.5869853169       -5.0293017378       -1.4029213847
 C         -5.8910001074       -3.8402524976       -1.3312239377
 C         -4.6575163763       -3.7745259790       -0.6788153177
 C         -3.9541891812       -2.4866125991       -0.6408287198
 O         -4.4049963834       -1.4671561388       -1.1450605545
 C         -2.6506337698       -2.4942144453        0.0522965306
 C         -1.9332071137       -1.3071998929        0.1072866510
 C         -0.6917357201       -1.2511048998        0.7320921212
 N          0.0169701368       -0.0548839681        0.7747837310
 C         -0.6571172493        1.1572883208        0.8686719775
 C         -1.8420921266        1.2683839752        1.6169695525
 C         -2.4810814237        2.4789529537        1.7133714580
 C         -1.9663520338        3.6236158692        1.0924186990
 C         -0.7970451410        3.5098040024        0.3249675405
 C         -0.1579404003        2.2830010263        0.2202825300
 C         -0.2044167874        4.6627281476       -0.3823601649
 O          0.8098879639        4.5469115980       -1.0564607947
 C         -0.9074948992        5.9396464677       -0.2100579350
 C         -0.3876117846        7.0752757912       -0.8352396319
 C         -1.0136689078        8.2982048879       -0.7074127219
 C         -2.1733243116        8.4089561931        0.0511265883
 C         -2.6986164377        7.2961202242        0.6762231993
 C         -2.0764890401        6.0520399210        0.5584784169
 C         -2.6721415816        4.9009961974        1.2565483060
 O         -3.6915304576        4.9953168652        1.9280437185
 C          1.4031080331       -0.0679177558        0.6514189393
 C          2.1941823037        0.8768730927        1.3283030447
 C          3.5585516960        0.8553154530        1.1879164783
 C          4.1906000933       -0.1060507050        0.3897721118
 C          3.4021727936       -1.0415214540       -0.2977545034
 C          2.0216548305       -1.0160027408       -0.1568030799
 C          3.9909076595       -2.0661735647       -1.1823622552
 O          3.2937329163       -2.8836296786       -1.7678306043
 C          5.4532253061       -2.0306901305       -1.3043278602
 C          6.0744554722       -2.9645644282       -2.1369939419
 C          7.4451539848       -2.9658622906       -2.2938853302
 C          8.2232546398       -2.0339578160       -1.6164254991
 C          7.6249196573       -1.1075674256       -0.7868759631
 C          6.2392114256       -1.0928211626       -0.6172283785
 C          5.6549707470       -0.0906629914        0.2879089778
 O          6.3390566953        0.7129071795        0.9093126607
 C         -0.1603923238       -2.4185888903        1.3079345635
 C         -0.8676773302       -3.5926683236        1.2542896558
 C         -2.1261586788       -3.6540708810        0.6432047994
 H         -4.4220151892       -7.0056289159        0.2959468195
 H         -6.6070671026       -7.1086029917       -0.8731627283
 H         -7.5369877995       -5.0664100482       -1.9144763623
 H         -6.2755812993       -2.9347325593       -1.7772303404
 H         -2.3525681059       -0.4348917919       -0.3693941293
 H         -2.2279986602        0.4028432757        2.1327028857
 H         -3.3847564580        2.5859523876        2.2942916431
 H          0.7285689211        2.2218781965       -0.3914231138
 H          0.5139296685        6.9625666409       -1.4196325592
 H         -0.6018958158        9.1671305650       -1.1983631319
 H         -2.6641375689        9.3650959645        0.1536504106
 H         -3.5972914474        7.3579425182        1.2723468324
 H          1.7210231340        1.6019859842        1.9719283445
 H          4.1831767696        1.5664993588        1.7069314080
 H          1.4390218999       -1.7361945923       -0.7098139324
 H          5.4479230330       -3.6774896259       -2.6526872597
 H          7.9110661920       -3.6902829739       -2.9446552081
 H          9.2960319561       -2.0331789519       -1.7377657835
 H          8.2080996272       -0.3756529464       -0.2477241104
 H          0.7946721988       -2.3760255509        1.8081517420
 H         -0.4817327363       -4.4965025201        1.7011329456
  70
       -127.90924527
 O         -3.5008526880       -5.0788855000       -1.5625559316
 C         -3.6819261811       -4.0787953201       -0.8788665357
 C         -5.0078897272       -3.7002217531       -0.3654801091
 C         -6.1101812350       -4.4717144676       -0.7387131788
 C         -7.3784706832       -4.1439734312       -0.3052239079
 C         -7.5687722661       -3.0408345446        0.5194677071
 C         -6.4892288266       -2.2732997783        0.9044229354
 C         -5.1996700187       -2.5895738719        0.4704416448
 C         -4.0875562928       -1.7377909278        0.9075840376
 O         -4.2270730507       -0.8084396436        1.6914199827
 C         -2.7754680518       -2.0632966638        0.3175127400
 C         -1.7133487030       -1.2144584104        0.5885006353
 C         -0.4579185263       -1.4364909877        0.0301182359
 N          0.5695068585       -0.5274178412        0.2643133342
 C          0.2520277873        0.8237786520        0.3724252698
 C          0.9470117793        1.6697119258        1.2511643490
 C          0.5542841513        2.9785971382        1.3945588092
 C         -0.5486613060        3.4859877518        0.6988236769
 C         -1.2086782931        2.6570184895       -0.2208012982
 C         -0.7968299259        1.3436134769       -0.3814198124
 C         -2.3619860235        3.1223125820       -1.0170560796
 O         -2.8705247281        2.4202777019       -1.8790998398
 C         -2.8581542863        4.4631116388       -0.6812570163
 C         -4.0197068074        4.9190788576       -1.3073483829
 C         -4.5315062653        6.1675767712       -1.0177674764
 C         -3.8858869372        6.9862681187       -0.0988220079
 C         -2.7322419724        6.5518816763        0.5228312352
 C         -2.2065033724        5.2887193808        0.2477286146
 C         -0.9873573915        4.8649197946        0.9577023519
 O         -0.3812929874        5.6040137693        1.7213907289
 C          1.8832801193       -0.9644360095        0.3673079859
 C          2.1769847295       -2.2207030429        0.9275325856
 C          3.4768298390       -2.6541408729        0.9962381252
 C          4.5314183686       -1.8600784919        0.5302505989
 C          4.2403971517       -0.6085948684       -0.0360389570
 C          2.9244751558       -0.1713534117       -0.1046158636
 C          5.2950433451        0.2714883893       -0.5767759190
 O          5.0333799233        1.3704332885       -1.0472964832
 C          6.6600918718       -0.2648565205       -0.5125078995
 C          7.7024482203        0.5033656775       -1.0369751928
 C          9.0012047471        0.0385370271       -1.0122840870
 C          9.2848690357       -1.2035448942       -0.4556185270
 C          8.2671944918       -1.9722021772        0.0712700812
 C          6.9472806963       -1.5174153253        0.0516217307
 C          5.9022190898       -2.3757816271        0.6304200443
 O          6.1504018845       -3.4585916916        1.1459902547
 C         -0.2575105442       -2.5723229188       -0.7728919921
 C         -1.3020811561       -3.4278940229       -1.0220656779
 C         -2.5834966735       -3.1748746365       -0.5186626154
 H         -5.9374504643       -5.3226673843       -1.3811265946
 H         -8.2224442440       -4.7445597404       -0.6092998199
 H         -8.5601815027       -2.7837852625        0.8609642792
 H         -6.6096089948       -1.4132087570        1.5466120638
 H         -1.8877553588       -0.3752065376        1.2431785999
 H          1.7636291653        1.2760422234        1.8361266399
 H          1.0622277169        3.6381441905        2.0818864656
 H         -1.3174243267        0.7327717286       -1.1019638623
 H         -4.5017737295        4.2640495989       -2.0181427956
 H         -5.4331148325        6.5056728414       -1.5059653530
 H         -4.2851041800        7.9628435933        0.1302538681
 H         -2.2131667563        7.1711768605        1.2395422450
 H          1.3753395138       -2.8248491806        1.3236799592
 H          3.7229330652       -3.6112561913        1.4314696080
 H          2.7266296748        0.7861663570       -0.5607714700
 H          7.4569110256        1.4650368069       -1.4632687038
 H          9.7957241920        0.6404931444       -1.4270250003
 H         10.3007760920       -1.5682851824       -0.4338917574
 H          8.4624086596       -2.9392448862        0.5112097867
 H          0.7094756250       -2.7437495034       -1.2200326079
 H         -1.1722775234       -4.2956350950       -1.6513719362
  70
       -127.90870786
 O         -3.5629324745       -5.0105127773       -1.5763249384
 C         -3.7160394675       -4.0099278968       -0.8869995319
 C         -5.0357250894       -3.5798008193       -0.3972814595
 C         -6.1644765724       -4.2839978675       -0.8206164424
 C         -7.4261760983       -3.9062413319       -0.4084128811
 C         -7.5834974605       -2.8220929064        0.4476879447
 C         -6.4779107500       -2.1204738840        0.8817105152
 C         -5.1952920727       -2.4848537094        0.4658187255
 C         -4.0555894645       -1.6943066851        0.9445488867
 O         -4.1663039844       -0.7873904037        1.7583832284
 C         -2.7527116223       -2.0470040562        0.3495063251
 C         -1.6715194885       -1.2246561233        0.6235027411
 C         -0.4259815851       -1.4625637976        0.0490397782
 N          0.6074130241       -0.5531570091        0.2561728151
 C          0.2861102393        0.7984988250        0.3446774567
 C          0.9883598930        1.6655591677        1.1965960217
 C          0.5774087673        2.9696058522        1.3348968037
 C         -0.5522937323        3.4503248349        0.6634729235
 C         -1.2162299880        2.6023658616       -0.2358426003
 C         -0.7830109725        1.2962625788       -0.3961032417
 C         -2.4007179034        3.0357975140       -1.0033707571
 O         -2.9132848673        2.3186552622       -1.8505651842
 C         -2.9263444561        4.3608658188       -0.6513552274
 C         -4.1207478120        4.7807879049       -1.2396651367
 C         -4.6639588454        6.0106700005       -0.9286330507
 C         -4.0174085864        6.8464560292       -0.0258599636
 C         -2.8308036371        6.4485067813        0.5570173021
 C         -2.2724678267        5.2045616264        0.2596822185
 C         -1.0172037908        4.8194165689        0.9278723229
 O         -0.4058968230        5.5794404190        1.6664820261
 C          1.9221048966       -0.9864491372        0.3559412839
 C          2.2235276087       -2.2268266805        0.9465075267
 C          3.5272022403       -2.6452436279        1.0339146002
 C          4.5767962073       -1.8537111893        0.5519761801
 C          4.2760701105       -0.6272058249       -0.0619565514
 C          2.9569003965       -0.2023431049       -0.1440066095
 C          5.3229646343        0.2381313868       -0.6397773051
 O          5.0505089848        1.3083542427       -1.1671634819
 C          6.6939485907       -0.2767624440       -0.5405213475
 C          7.7305329216        0.4796388551       -1.0931233641
 C          9.0352556726        0.0354345805       -1.0337128561
 C          9.3309792020       -1.1728082973       -0.4123721018
 C          8.3189476750       -1.9299084740        0.1413218182
 C          6.9927383689       -1.4966822179        0.0856482233
 C          5.9536448475       -2.3432060370        0.6921813897
 O          6.2119239060       -3.3961963870        1.2620232939
 C         -0.2489182993       -2.6029730424       -0.7520326689
 C         -1.3132602758       -3.4343767661       -1.0028444017
 C         -2.5893544397       -3.1514392581       -0.5018453205
 H         -6.0176113349       -5.1232160653       -1.4845270930
 H         -8.2905184781       -4.4541453915       -0.7522901347
 H         -8.5693875896       -2.5279563618        0.7750598778
 H         -6.5723907202       -1.2751861331        1.5474940231
 H         -1.8244922214       -0.3877889430        1.2865111150
 H          1.8234105542        1.2915918236        1.7682511905
 H          1.0900831662        3.6442350862        2.0038194591
 H         -1.3070163893        0.6717433064       -1.1022655915
 H         -4.6027871751        4.1127000820       -1.9382184578
 H         -5.5905261936        6.3210384151       -1.3877173182
 H         -4.4420623446        7.8077284240        0.2213793717
 H         -2.3104303902        7.0820884881        1.2601464847
 H          1.4250603914       -2.8272181844        1.3547763384
 H          3.7807682983       -3.5858796649        1.4996930237
 H          2.7512883662        0.7391987082       -0.6291322828
 H          7.4755943416        1.4154232760       -1.5686285168
 H          9.8252640394        0.6274468504       -1.4708072479
 H         10.3518177880       -1.5206414820       -0.3623081214
 H          8.5233396228       -2.8712595338        0.6301122837
 H          0.7136480852       -2.7937303807       -1.2011190786
 H         -1.2036607406       -4.3013566913       -1.6370379714
  70
       -127.90778655
 O         -2.3455738479       -5.7257969081        1.7459841507
 C         -2.6992170491       -4.8456785955        0.9716304138
 C         -3.7414456778       -5.0552379802       -0.0446213567
 C         -4.2606244429       -6.3407957541       -0.2092367664
 C         -5.2268547575       -6.5920842946       -1.1616402806
 C         -5.7002357978       -5.5581460028       -1.9618579264
 C         -5.2068105710       -4.2797383683       -1.8022343845
 C         -4.2190418639       -4.0112995813       -0.8514258112
 C         -3.7073566349       -2.6397327122       -0.7413690299
 O         -4.1739840157       -1.7012933855       -1.3729841070
 C         -2.5574250609       -2.4671726396        0.1675038620
 C         -1.9178697709       -1.2333911330        0.1905499172
 C         -0.7755694319       -1.0460360927        0.9559660574
 N         -0.0676347765        0.1597447533        0.8902196766
 C         -0.7357924791        1.3707369141        0.9137417206
 C         -1.9591659158        1.4950787466        1.5974520934
 C         -2.5986063732        2.7081566620        1.6475174330
 C         -2.0487727538        3.8453146177        1.0432872815
 C         -0.8450500649        3.7177491692        0.3334989277
 C         -0.2085217789        2.4876339928        0.2679715173
 C         -0.2109733162        4.8636483639       -0.3514297458
 O          0.8242258325        4.7333426719       -0.9883783046
 C         -0.8967078282        6.1536240502       -0.1979803679
 C         -0.3239932819        7.2864235268       -0.7795243980
 C         -0.9304571803        8.5209426380       -0.6637295825
 C         -2.1244981196        8.6446712404        0.0364779427
 C         -2.7031642094        7.5334719348        0.6169018786
 C         -2.1003978021        6.2792187298        0.5127157895
 C         -2.7517797440        5.1298360779        1.1646409578
 O         -3.8092372875        5.2330955885        1.7714555181
 C          1.3068415398        0.0838743931        0.6901481399
 C          2.1888364599        1.0420596233        1.2193984939
 C          3.5375778442        0.9315292722        0.9898296616
 C          4.0663995731       -0.1387635643        0.2570273100
 C          3.1867742342       -1.0944319865       -0.2741861415
 C          1.8232134608       -0.9734321217       -0.0527563028
 C          3.6564020860       -2.2454825244       -1.0686424044
 O          2.8759402949       -3.0683195083       -1.5292019689
 C          5.1085681988       -2.3281784701       -1.2577167983
 C          5.6234063609       -3.4064074936       -1.9818491032
 C          6.9802407191       -3.5230791524       -2.2003092194
 C          7.8498754552       -2.5615794532       -1.6974841015
 C          7.3570117016       -1.4932000091       -0.9764902027
 C          5.9867129406       -1.3629653599       -0.7413693437
 C          5.5177503739       -0.2166366474        0.0540117040
 O          6.2827357504        0.6235805051        0.5112929819
 C         -0.2906328769       -2.0973202272        1.7507453449
 C         -0.9410577660       -3.3051585280        1.7573827863
 C         -2.0766451421       -3.5159636297        0.9665507182
 H         -3.8778969502       -7.1262419751        0.4258231991
 H         -5.6132996302       -7.5927077560       -1.2842175099
 H         -6.4538774382       -5.7538046029       -2.7097956824
 H         -5.5608463491       -3.4596110854       -2.4094898261
 H         -2.2987627570       -0.4416531525       -0.4360775361
 H         -2.3748221640        0.6368422099        2.1021162163
 H         -3.5310524751        2.8222804093        2.1796661851
 H          0.6981787411        2.4175554539       -0.3121156815
 H          0.6031493415        7.1638699045       -1.3201416667
 H         -0.4765660422        9.3882889365       -1.1190246827
 H         -2.6008106599        9.6091744587        0.1285897924
 H         -3.6297318492        7.6058020202        1.1673930337
 H          1.8009821498        1.8472549422        1.8238010535
 H          4.2308522284        1.6553019540        1.3912653237
 H          1.1709111222       -1.7115797446       -0.4923071716
 H          4.9255484146       -4.1369339031       -2.3641789191
 H          7.3641054023       -4.3598914137       -2.7643766451
 H          8.9119891097       -2.6496745881       -1.8696395070
 H          8.0135337499       -0.7365328963       -0.5726776808
 H          0.5889419829       -1.9397452572        2.3560526040
 H         -0.5953296277       -4.1242776706        2.3697581829
