  70
       -127.90998269
 O         -3.5064583724       -5.1387726299       -1.7209327992
 C         -3.7031094182       -4.1996436123       -0.9595844438
 C         -5.0068070242       -3.9581902314       -0.3221220074
 C         -6.0602070714       -4.8265233764       -0.6153830616
 C         -7.3060507645       -4.6371610730       -0.0533729794
 C         -7.5219565700       -3.5751506986        0.8177208596
 C         -6.4909739682       -2.7096867623        1.1193761135
 C         -5.2236874053       -2.8881708885        0.5592355656
 C         -4.1607641545       -1.9426275140        0.9214893063
 O         -4.3286540460       -1.0227638627        1.7106394354
 C         -2.8589411323       -2.1725618421        0.2662328048
 C         -1.8273439427       -1.2852765224        0.5366730507
 C         -0.5730363821       -1.4499110327       -0.0426473063
 N          0.4444366192       -0.5454001175        0.2394579767
 C          0.1376658723        0.8004422438        0.4199308597
 C          0.8526271401        1.5843053133        1.3398691321
 C          0.5290243859        2.9078870232        1.5093208580
 C         -0.5159131182        3.4963647594        0.7885811821
 C         -1.2167578027        2.7203336122       -0.1471662199
 C         -0.8870826460        1.3838711131       -0.3187832106
 C         -2.3091437163        3.2772471255       -0.9705715663
 O         -2.9026867413        2.5942425212       -1.7928561945
 C         -2.6225384637        4.6927582588       -0.7335188303
 C         -3.6507707245        5.2800878729       -1.4734339539
 C         -3.9760987588        6.6094639796       -1.2955174272
 C         -3.2792019169        7.3772874130       -0.3700127785
 C         -2.2622770864        6.8100309477        0.3713706790
 C         -1.9216758572        5.4669995504        0.2037142062
 C         -0.8346493090        4.9111560263        1.0268004041
 O         -0.2258734969        5.5812058825        1.8499364158
 C          1.7624493870       -0.9789142966        0.3153835654
 C          2.0705094697       -2.2550662872        0.8196077625
 C          3.3762802817       -2.6727659280        0.8768707247
 C          4.4224037596       -1.8431488204        0.4557139090
 C          4.1159316874       -0.5756773023       -0.0647567362
 C          2.7942698845       -0.1556476113       -0.1240090193
 C          5.1594460788        0.3420193514       -0.5625186133
 O          4.8799516814        1.4423365737       -1.0194574845
 C          6.5366103749       -0.1571844936       -0.4687782791
 C          7.5736597723        0.6628738278       -0.9202481406
 C          8.8844745492        0.2366064506       -0.8620413113
 C          9.1850206819       -1.0192494255       -0.3465420720
 C          8.1722227438       -1.8399810744        0.1060483600
 C          6.8405108119       -1.4236780548        0.0540981218
 C          5.8017294652       -2.3351347475        0.5585608910
 O          6.0626434337       -3.4376388415        1.0238123401
 C         -0.3509974124       -2.5416020683       -0.9001151333
 C         -1.3689105082       -3.4230390007       -1.1649818539
 C         -2.6427960435       -3.2468341742       -0.6120301078
 H         -5.8677717083       -5.6429660736       -1.2959305584
 H         -8.1120779972       -5.3146718883       -0.2918759348
 H         -8.4953615602       -3.4267882089        1.2605836017
 H         -6.6328926932       -1.8777170508        1.7934791774
 H         -2.0184953385       -0.4734961122        1.2208156227
 H          1.6378929438        1.1329845090        1.9261233965
 H          1.0576376527        3.5230234176        2.2217565542
 H         -1.4356996012        0.8137500934       -1.0519451504
 H         -4.1768872702        4.6627744755       -2.1867401082
 H         -4.7710448496        7.0511247342       -1.8773718198
 H         -3.5318929936        8.4173651247       -0.2288940424
 H         -1.7077441261        7.3857186574        1.0978481910
 H          1.2756157405       -2.8870952180        1.1846564542
 H          3.6337232588       -3.6439506369        1.2725682736
 H          2.5854152357        0.8169586716       -0.5416494082
 H          7.3144402068        1.6336429556       -1.3167772347
 H          9.6752450477        0.8792782742       -1.2187847325
 H         10.2102779145       -1.3542138117       -0.2992055345
 H          8.3804014061       -2.8190180420        0.5122182489
 H          0.6130694414       -2.6601874257       -1.3701688616
 H         -1.2230059585       -4.2582465435       -1.8335892787
