  104
       -164.22713779
 O         -0.0153285752        6.3759354661       -0.0406999027
 C         -0.0001003983        5.1279044167       -0.0263700560
 C          1.1627734646        4.2564898185       -0.0128341499
 C          2.5165938219        4.5764101113       -0.0184811772
 C          3.4442926364        3.5580858688       -0.0133298667
 C          3.0289409936        2.2163532657        0.0025608203
 N          4.0160278386        1.1887674296        0.0114352603
 C          4.6626746111        0.8751603559       -1.1646947325
 C          4.3307890384        1.5464443679       -2.3493981465
 C          4.9734388165        1.2472114746       -3.5304025726
 C          5.9562208417        0.2682029286       -3.5639282612
 C          6.2774978390       -0.4114605852       -2.4037332909
 C          5.6437526340       -0.1245917216       -1.2043217129
 C          6.0159494657       -0.9133194517        0.0220725863
 C          5.8114097925       -2.3984531004       -0.2218280573
 C          4.6360445673       -3.0581728004       -0.5019257622
 C          4.6785633812       -4.4335976533       -0.6901125649
 C          5.8766209644       -5.1252194771       -0.5978229593
 C          7.0613771809       -4.4634959651       -0.3162300232
 C          7.0256628997       -3.0917953309       -0.1277755056
 C          8.0816053274       -2.1366564784        0.1737417355
 C          9.4425783690       -2.3098145061        0.3633425092
 C         10.2197917872       -1.1965931932        0.6421201314
 C          9.6519861393        0.0652048568        0.7303231128
 C          8.2877651637        0.2453831596        0.5417270559
 C          7.5133317600       -0.8586042507        0.2646627769
 C          5.2641861938       -0.4729289956        1.2492822942
 C          5.5325585950       -1.0956934161        2.4587379540
 C          4.8776916504       -0.7225852255        3.6175407857
 C          3.9403989202        0.2994343509        3.5711260431
 C          3.6586747098        0.9305718929        2.3796522494
 C          4.3077096676        0.5498941732        1.1973673777
 C          1.6858818688        1.8759130367        0.0145274292
 C          0.7424340334        2.8893009711        0.0047266924
 C         -0.6878755418        2.8715306956       -0.0049351014
 C         -1.6059933793        1.8355166051        0.0063409384
 C         -2.9577855862        2.1422299518       -0.0038450986
 N         -3.9249311411        1.0981025495        0.0027205112
 C         -4.1193868743        0.3471510992       -1.1380426045
 C         -3.3583578080        0.5976695877       -2.2880381773
 C         -3.5329490865       -0.1575183799       -3.4267545416
 C         -4.4736855559       -1.1768394473       -3.4536297411
 C         -5.2479860273       -1.4137414796       -2.3333905304
 C         -5.0889894037       -0.6642415515       -1.1776255609
 C         -5.9962417094       -0.9350152374       -0.0083187400
 C         -5.9956551412       -2.4081284554        0.3559090642
 C         -4.9395449326       -3.1715826227        0.7999947508
 C         -5.1652054108       -4.5128607247        1.0811235352
 C         -6.4246643063       -5.0691539514        0.9187156795
 C         -7.4899395133       -4.3031027010        0.4721966676
 C         -7.2712734672       -2.9649772313        0.1898537244
 C         -8.1712401308       -1.9250203822       -0.2864117583
 C         -9.5194467724       -1.9583483281       -0.6017938332
 C        -10.1260752813       -0.7926437051       -1.0422049260
 C         -9.4032042244        0.3839060603       -1.1670873832
 C         -8.0513267157        0.4240956112       -0.8514897946
 C         -7.4467375514       -0.7321247601       -0.4123568331
 C         -5.6646846167       -0.0919530275        1.1932572671
 C         -6.3828114222       -0.2812834557        2.3640759660
 C         -6.1094445862        0.4582933427        3.4997504406
 C         -5.0872271554        1.3959470824        3.4720307353
 C         -4.3631846434        1.6004077284        2.3181410675
 C         -4.6507118920        0.8742529666        1.1541927041
 C         -3.4048767963        3.4746991941       -0.0249622851
 C         -2.5027067245        4.5151529476       -0.0364643955
 C         -1.1413261458        4.2284780408       -0.0230510442
 H          2.8273445654        5.6098569333       -0.0270846264
 H          4.5023152495        3.7751008576       -0.0156311047
 H          3.5623294579        2.3020893209       -2.3295119661
 H          4.7048419148        1.7783464210       -4.4308776191
 H          6.4615513810        0.0332435828       -4.4875463090
 H          7.0331486216       -1.1828473475       -2.4205230047
 H          3.7022246615       -2.5192553113       -0.5748487762
 H          3.7676256058       -4.9697770184       -0.9112480963
 H          5.8858944306       -6.1946744273       -0.7478757290
 H          7.9919619186       -5.0065041045       -0.2454671369
 H          9.8893826971       -3.2905232488        0.2962781246
 H         11.2828123353       -1.3128925660        0.7934045953
 H         10.2768059492        0.9184221210        0.9481782343
 H          7.8453122700        1.2287960353        0.6108748720
 H          6.2700849101       -1.8840916851        2.4840569413
 H          5.0994901580       -1.2187992285        4.5493148702
 H          3.4289364719        0.6086413147        4.4699898991
 H          2.9366349173        1.7304884325        2.3508081293
 H          1.3927325752        0.8359279995        0.0285650738
 H         -1.2869458674        0.8031914137        0.0238708576
 H         -2.6336145579        1.3953064298       -2.2785268923
 H         -2.9337005218        0.0521936368       -4.2997675003
 H         -4.6096844094       -1.7721596711       -4.3428422713
 H         -5.9972968929       -2.1912029512       -2.3485721156
 H         -3.9583606519       -2.7372216731        0.9277628523
 H         -4.3498311540       -5.1286032888        1.4304042179
 H         -6.5771486693       -6.1143830140        1.1434684387
 H         -8.4688272206       -4.7413839148        0.3475145080
 H        -10.0867131460       -2.8721523104       -0.5066886877
 H        -11.1765756601       -0.7998526936       -1.2925371526
 H         -9.8963316028        1.2797235790       -1.5138403437
 H         -7.4880317681        1.3409710298       -0.9499062206
 H         -7.1674335202       -1.0231870465        2.3782412828
 H         -6.6816407839        0.2996543424        4.4003223789
 H         -4.8509060379        1.9693310822        4.3555051917
 H         -3.5633023641        2.3227023314        2.3052231459
 H         -4.4678674091        3.6656848042       -0.0381293821
 H         -2.8385070327        5.5406120075       -0.0560848188
