104
 energy: -142.689739030628 gnorm: 0.000044748076 xtb: 6.7.1 (edcfbbe)
C            1.95094081859095       -3.43769596659804        2.30405002381137
C            2.75346898962618       -3.33176850724804        1.04225727863029
C            3.99710204655333       -3.94619720646825        0.96872824435820
C            4.78517857951314       -3.84082905554087       -0.16138598761033
C            4.33975526785822       -3.09793063121950       -1.24120043345622
C            3.10356695780070       -2.48583950170700       -1.18384322801040
C            2.29460636339333       -2.60749291344716       -0.05775164410321
C            0.97704027762934       -1.92640443842874       -0.07234564179507
C            0.94707624751015       -0.53802445110963       -0.05995922789386
C            2.19757716516659        0.23796487998476       -0.07168570656316
C            2.43092357644291        1.17996053695623       -1.07066706715720
C            3.58156423610854        1.93828390582834       -1.07133472860087
C            4.55107905912598        1.79482870573837       -0.08116974082013
C            5.78424944489548        2.68357830587915       -0.10711509362948
C            5.33751307046189        4.14775373735328        0.01359043960921
C            6.53259285156119        2.47400784597251       -1.43081146851062
C            6.75409664301917        2.38340686956687        1.03899158232634
C            4.32224282225904        0.83987025456752        0.90119773238679
C            3.17001169197799        0.07564163439974        0.90750841512874
C           -0.30076568383208        0.13957055793324       -0.01785153597431
C           -0.27994981054820        1.61214390833595       -0.00300372041475
C           -0.92116849980509        2.33603511502247       -1.00298688856967
C           -0.84077504049055        3.71433607338829       -1.04845805207168
C           -0.11537194209759        4.42737414878123       -0.10062610431260
C            0.02662298729990        5.94075111995836       -0.12759261458408
C           -0.53043255117988        6.52369787532309        1.17889500107363
C           -0.72734841391030        6.58502074091867       -1.29398111142241
C            1.51434929515152        6.29459940077295       -0.26492347693195
C            0.51298897769395        3.69807751866303        0.90558851412342
C            0.43781740315788        2.32190488448249        0.95641480270256
C           -1.48734321604757       -0.58247033729238       -0.06805764738194
C           -1.45224799303513       -1.98832903221345       -0.31484648185843
C           -2.64110282238752       -2.59915825917979       -0.77937758102034
N           -2.69364008708237       -3.90503991592547       -1.19908065202779
C           -3.84653768351953       -1.85303332857677       -0.88274051217355
C           -3.95271356364292       -0.56129950487361       -0.44191942953552
C           -5.19572255563998        0.19312954294547       -0.46053236381465
C           -6.28930654097645       -0.21010372930763       -1.21946953994531
C           -7.47910390991271        0.50515268756698       -1.21919807308123
C           -7.58853926309955        1.65716254165812       -0.46003185975880
C           -6.51490860165295        2.09415530827907        0.28901524046949
C           -5.30276690996420        1.38149817613065        0.30941314980412
C           -4.17796236425978        1.80770739759863        1.07618126386087
N           -4.24146808741721        2.92376327093276        1.87772094788801
C           -2.94410514256514        1.15568278434473        0.93764960631399
C           -2.78053179963113        0.05426295425840        0.13076412110016
C           -0.20758875697680       -2.66910522263066       -0.18486650561726
C           -0.11571565910869       -4.13712395258926       -0.12257802131241
C            0.67669946965230       -4.82650494969024       -1.04323556362401
C            0.82366619786439       -6.19773550142523       -0.97454125646803
C            0.17976436803837       -6.90904846590774        0.02401012158171
C           -0.60683402423312       -6.23654478291869        0.94389357275326
C           -0.76552937018674       -4.86000030431514        0.89375417559607
C           -1.61540679498089       -4.17280224486525        1.91966262233177
H            2.60633134144939       -3.41569491137365        3.17331516949142
H            1.23469057104586       -2.62258618126166        2.37944901807229
H            1.40032574233907       -4.37795280443376        2.32167849088167
H            4.35281597399607       -4.51096386699094        1.81951878630083
H            5.74898116172746       -4.32779452731146       -0.19610572268938
H            4.95387316498084       -2.99568592684265       -2.12405287180334
H            2.74801768211128       -1.90387960472401       -2.02292459796027
H            1.70043000441026        1.31511313671714       -1.85543899858013
H            3.71789800399902        2.66095839427213       -1.86236312686113
H            6.20225172002863        4.80837337185964        0.00486644082725
H            4.68270003282356        4.43010022467686       -0.80605075165528
H            4.79674936687473        4.29779979941268        0.94589634008436
H            5.91362908824240        2.74072388666175       -2.28281166371203
H            6.82417756851733        1.43082737448164       -1.53459275008638
H            7.43031134115512        3.08866555061647       -1.45666674016510
H            6.28305869993080        2.55134518858185        2.00480343832397
H            7.10999581664393        1.35686086379714        0.98995222979614
H            7.61684966788091        3.04314430302077        0.96710829072185
H            5.03930898853944        0.67960377648088        1.69027357828736
H            3.01576546018459       -0.64084747761878        1.70090836406829
H           -1.48183428233249        1.80688055650508       -1.76089984317085
H           -1.34984755989892        4.22544303443074       -1.84951750521979
H            0.01012502415249        6.14718060029280        2.04295513142947
H           -0.44727829291999        7.60869789192200        1.17212966274219
H           -1.58015081584286        6.25817570062471        1.28904584412200
H           -0.34842380604112        6.22843685435519       -2.24892143787614
H           -1.79310293600509        6.37660225419837       -1.23343844785662
H           -0.59271021937652        7.66462994136341       -1.26141140497641
H            1.91628550789560        5.86775417627862       -1.18150172245071
H            1.64406266068175        7.37450125141708       -0.30003120908142
H            2.09256430308439        5.90772040912785        0.56949859291834
H            1.08400195971178        4.20711615642405        1.66825641138520
H            0.93589919025703        1.78819436195524        1.75335119033240
H           -3.47505022713275       -4.16168116506336       -1.77952985695796
H           -1.82322479838582       -4.38188429337476       -1.37254966294444
H           -4.70316988950783       -2.37297927196284       -1.28490896182475
H           -6.21839696373866       -1.09006799288831       -1.83975843229202
H           -8.31160504602030        0.16426499970111       -1.81643897271547
H           -8.51016877632454        2.22114899356273       -0.45842373918330
H           -6.61174185872100        3.01081815127816        0.85188666786917
H           -5.14046027870963        3.20612024592643        2.22893391652263
H           -3.46406276235813        3.06733860197915        2.50112243671302
H           -2.10673678085734        1.54850606728498        1.49352285568970
H            1.16779157249095       -4.27398819616509       -1.83051200102564
H            1.44099724051440       -6.70970635244392       -1.69790608374614
H            0.29236055593635       -7.98110920441766        0.08947925427090
H           -1.10067684661521       -6.79266810911443        1.72895069330324
H           -1.66191659638916       -4.76255613415612        2.83279310053264
H           -1.22643938477788       -3.18475849598819        2.15425523657943
H           -2.63126962395538       -4.04672177897398        1.54499050498960
