104
 energy: -142.755160178513 gnorm: 0.000061627372 xtb: 6.7.1 (edcfbbe)
C            1.08653659220180       -3.43365057731384        1.82948060919373
C            1.33273389973216       -3.94015854391098        0.44118357645192
C            2.25445955945749       -4.96046944664602        0.24106781759798
C            2.50403205888179       -5.46783974358959       -1.01924142933705
C            1.83070431201598       -4.95029846426473       -2.11203520324654
C            0.91208025009800       -3.93625902585772       -1.92694348621871
C            0.64774350044517       -3.42875748653560       -0.65888303729206
C           -0.34298429074682       -2.32893833972757       -0.54183536938824
C            0.11571002576113       -1.00304355300024       -0.52190910121467
C            1.57225115776557       -0.75463443357812       -0.44967255643615
C            2.41591833246122       -1.06543154359608       -1.50553770914567
C            3.77435308406842       -0.81550290281463       -1.42683654683819
C            4.33948121474160       -0.24924252089685       -0.29192835443735
C            5.82132137313216        0.06912219384184       -0.17095627161112
C            6.40545850344263       -0.69437251586445        1.02569060413629
C            5.98476372707315        1.58074556306563        0.04392255866056
C            6.61494169571788       -0.32446822761105       -1.41962735738847
C            3.48689697582791        0.04600878179920        0.76889906289997
C            2.13225711973929       -0.20033972099511        0.69584278065677
C           -0.78850858464157        0.04550877501969       -0.46230995190297
C           -0.22805109893625        1.39246256089563       -0.23157971116104
C            0.71012755720323        1.95275997601486       -1.08956942778428
C            1.27694749504642        3.18424635530996       -0.81642206714864
C            0.93579893328191        3.89841436923846        0.32516242397616
C            1.53608255561209        5.25320321399646        0.66644255235429
C            2.23090031365493        5.16282160569955        2.03229996921488
C            0.41240640823031        6.29814988250328        0.72130645769124
C            2.57153339974510        5.71725915337313       -0.36156609522905
C           -0.00368708824191        3.32801736870933        1.18198561594248
C           -0.57342303021155        2.10056557442429        0.91597570878213
C           -2.18170184415292       -0.20447527358974       -0.50693050232449
C           -2.63884563753918       -1.54778172172442       -0.39769143450319
C           -4.05339073701381       -1.77090185849002       -0.28775463706960
N           -4.59432096698263       -3.04461729248632       -0.26390009047619
C           -4.89861398854584       -0.70365315691246       -0.12147742449538
C           -4.47644066925605        0.63053080065330       -0.26267410667476
C           -5.38389378051860        1.74008138227816       -0.15235998258081
C           -6.67901805054052        1.59146567099872        0.37334558849027
C           -7.54014933824524        2.65230140041145        0.48420412499071
C           -7.14173762751653        3.92146785153879        0.06392754917126
C           -5.88194603682530        4.10451145039267       -0.44268378885081
C           -4.97448949567909        3.03665978147595       -0.55617657048411
C           -3.65613044812570        3.20483547815979       -1.08898693314089
N           -3.26778606478947        4.40653029829452       -1.66330909052056
C           -2.78758903276914        2.14689988547333       -1.09491096607797
C           -3.13513543570573        0.86975236738556       -0.60929671861157
C           -1.69262009205071       -2.60040891595895       -0.39294638036856
C           -2.02676411483995       -4.02212223054962       -0.12974199241595
C           -1.94045442086322       -4.96291502580546       -1.15113699569118
C           -2.14114927490829       -6.30711035043201       -0.89726190899226
C           -2.42368558393267       -6.72511163355239        0.39068048610228
C           -2.52256781140316       -5.79348337091768        1.40886336594534
C           -2.33047181325362       -4.44028485333436        1.17073484248316
C           -2.49193635468348       -3.44933661369534        2.28255873825839
H            0.42074756028525       -4.11587707219342        2.35854447318840
H            2.02176415394648       -3.37568948629419        2.38312031872457
H            0.62877989937895       -2.44878725780008        1.81295405046518
H            2.78515517349921       -5.35981538708449        1.09419627700402
H            3.22505771761620       -6.26154597685329       -1.15048008130935
H            2.02292074553774       -5.33371662109841       -3.10357932928994
H            0.38975990129508       -3.52003652830783       -2.77795565256109
H            2.00684311120369       -1.49096760853274       -2.41003163559777
H            4.38548494225830       -1.06884140420794       -2.27794926290049
H            7.47099214731980       -0.49288554704157        1.11614801969536
H            5.92435861260633       -0.40309227258922        1.95521652114612
H            6.26585990076889       -1.76502404008144        0.89061055983326
H            5.48809843518838        1.90651612366300        0.95379734583227
H            5.55313280580401        2.12638835973187       -0.79289328574048
H            7.03919567261303        1.83897442517463        0.11867195950482
H            6.26070264425509        0.21505847442830       -2.29497487531888
H            7.66500715200710       -0.07729626789561       -1.27525341083495
H            6.54358328593175       -1.39348347214657       -1.60642556537627
H            3.87955217787795        0.48296886895132        1.67510078699291
H            1.49786725047141        0.04678037750441        1.53537143902144
H            0.98858340320397        1.42750903285840       -1.99169327194144
H            1.99725241156688        3.57581732438202       -1.51626451698947
H            1.52715184739425        4.90964321825259        2.82020928550518
H            3.00475913759035        4.39829986404902        2.00717338319627
H            2.69363157816421        6.11533949976635        2.28255568704287
H           -0.07746349047044        6.37430815850129       -0.24781346527155
H           -0.33707680132303        6.03448993156053        1.46264092487638
H            0.81874065997022        7.27427023574928        0.97824405599888
H            2.12466576256171        5.83097509891466       -1.34671457483048
H            2.97214052737728        6.68383654972569       -0.06205929981088
H            3.39933987292120        5.01469318949926       -0.42467385812612
H           -0.29952561356475        3.84571566484999        2.08256598869793
H           -1.29670562689606        1.68051824567157        1.60059332562952
H           -5.59090058627963       -3.07645102828055       -0.41190477952023
H           -4.08132947093700       -3.76934694004685       -0.73719016720743
H           -5.94568104519967       -0.91928996162696        0.02935815363741
H           -7.00420136993920        0.62464860563896        0.72436787595834
H           -8.52681883721877        2.50939191838931        0.90057453442870
H           -7.82344665910526        4.75568362915659        0.14468989402160
H           -5.58978493220894        5.09466229254220       -0.76135984107729
H           -3.69489266784130        5.23933348057852       -1.29201806992280
H           -2.27105432759816        4.49515367538121       -1.79106531317634
H           -1.81537875724214        2.29980844510513       -1.53252411127950
H           -1.72521698700550       -4.63257288282588       -2.15673098604914
H           -2.06954984959172       -7.02434165530100       -1.70147230827013
H           -2.57010496552405       -7.77416434222799        0.60191813462789
H           -2.75071390206414       -6.12322202862540        2.41291524846498
H           -3.49917518327434       -3.03369290237567        2.25257132663803
H           -2.34756329372227       -3.92583457995979        3.24966034508632
H           -1.79248845599761       -2.62352382393367        2.18177851332925
