  54
  -92.5645094558000       0.275409458100868      !
 C         -5.6997859005       -2.4280949848        2.4117137909
 C         -4.6674097950       -3.1725887069        1.8612850283
 C         -3.6501228027       -2.5160996947        1.1940782402
 C         -3.7127061509       -1.1261115055        1.0916323582
 C         -2.6520014191       -0.3909740610        0.3981720231
 N         -1.3962828257       -0.7621384583        0.5967937396
 C         -0.3796815786       -0.0731680769        0.0865987845
 C          0.9522671513       -0.4120373177        0.2790672326
 C          1.9584992034        0.4161885823       -0.2406271212
 N          3.3196270535        0.0970965307       -0.0772031106
 C          4.1642855875        0.9476645163        0.6323203290
 C          3.6888891043        2.0616907804        1.3162679605
 C          4.5548770428        2.8827808842        2.0185885855
 C          5.9079259647        2.6028262550        2.0573489788
 C          6.3951085333        1.4827520200        1.4025208365
 C          5.5349059612        0.6564597018        0.7012447043
 O          6.0803915702       -0.4479487596        0.1019836947
 C          5.2371738753       -1.2751115318       -0.5918036403
 C          5.8009007929       -2.3845875218       -1.1963899795
 C          5.0120615326       -3.2554037117       -1.9315515407
 C          3.6603904474       -3.0024632438       -2.0686070230
 C          3.0892385547       -1.8939280382       -1.4658587365
 C          3.8616829640       -1.0223203662       -0.7055770956
 C          1.5813912858        1.5626785170       -0.9241488704
 N          0.3160040350        1.8979574587       -1.1141787123
 C         -0.6723303564        1.1436342464       -0.6702122837
 N         -1.9331076192        1.4470570788       -0.9120941321
 C         -2.9332888826        0.7007788950       -0.4444456609
 C         -4.2889503956        1.0132887655       -0.8785587708
 C         -4.6309825957        2.3320607978       -1.1933449273
 C         -5.9229843120        2.5976091037       -1.6016202967
 C         -6.8295199392        1.5504464590       -1.6943108926
 C         -6.3818882699        0.2729977855       -1.3888307566
 N         -5.1529748518        0.0089175967       -0.9989608269
 N         -4.6880144506       -0.4127083261        1.6447073597
 C         -5.6502256648       -1.0471520205        2.2808662912
 H         -6.5157947713       -2.9028668724        2.9338414240
 H         -4.6572588619       -4.2499084325        1.9504052633
 H         -2.8233568819       -3.0477619450        0.7504366341
 H          1.2027714743       -1.2867289802        0.8565809749
 H          2.6336458050        2.2825249684        1.3002023429
 H          4.1611435483        3.7424653385        2.5381006627
 H          6.5850411708        3.2428755623        2.6000802299
 H          7.4425711794        1.2283030087        1.4254038298
 H          6.8609130822       -2.5447713259       -1.0825183495
 H          5.4590295064       -4.1184317552       -2.3987730058
 H          3.0386141413       -3.6646977383       -2.6506662756
 H          2.0364870740       -1.6992582296       -1.5913277532
 H          2.3172733652        2.2345191806       -1.3420479983
 H         -3.8848026048        3.1047590656       -1.1061663775
 H         -6.2230968476        3.6069043358       -1.8453224266
 H         -7.8490089031        1.7175057782       -2.0048454089
 H         -7.0379923521       -0.5846955167       -1.4664894177
 H         -6.4176424377       -0.4157152716        2.7100653358
  54
  -92.5640534233000       0.169981174007250      !
 C         -5.6569783099       -1.6404743189        3.0635143255
 C         -4.7050822767       -2.5497543420        2.6286330998
 C         -3.7007028055       -2.1154161157        1.7832246552
 C         -3.6971511926       -0.7772640848        1.3919048541
 C         -2.6427620323       -0.2719426409        0.5030824887
 N         -1.3872654443       -0.5732989360        0.7915579124
 C         -0.3756883824       -0.0701177457        0.0881417334
 C          0.9566839820       -0.3730779062        0.3336337736
 C          1.9547967102        0.2538605369       -0.4245152670
 N          3.3225401370       -0.0088665293       -0.1852653513
 C          3.9901875603        0.6493331943        0.8409087922
 C          3.3370181691        1.5258606431        1.6998147681
 C          4.0304660095        2.1616295684        2.7162894619
 C          5.3831879435        1.9350919348        2.8876868143
 C          6.0497894485        1.0677138323        2.0355327569
 C          5.3643496804        0.4282484829        1.0184272569
 O          6.0802073604       -0.4154675186        0.2093840659
 C          5.4115758783       -1.0313596999       -0.8165367851
 C          6.1424597217       -1.8675695280       -1.6409579087
 C          5.5221548173       -2.5279686204       -2.6907163439
 C          4.1689342552       -2.3505260877       -2.9101665101
 C          3.4301879400       -1.5149281043       -2.0891300441
 C          4.0386262390       -0.8416569819       -1.0358798520
 C          1.5764765734        1.1590440461       -1.4025886403
 N          0.3098665972        1.4355398065       -1.6663374447
 C         -0.6747274832        0.8695976752       -0.9909826618
 N         -1.9370894299        1.1166218582       -1.2831972295
 C         -2.9342679909        0.5540698768       -0.5974620032
 C         -4.2997026944        0.7932229734       -1.0429768651
 C         -4.6149246105        1.9785505834       -1.7155884796
 C         -5.9185851043        2.1779186769       -2.1232619825
 C         -6.8640824037        1.1951774153       -1.8621795895
 C         -6.4434694148        0.0419602716       -1.2148451866
 N         -5.2037355519       -0.1578177128       -0.8208120451
 N         -4.5947817207        0.0981266397        1.8296190740
 C         -5.5448392363       -0.3244717126        2.6377532998
 H         -6.4591398668       -1.9403944950        3.7198241201
 H         -4.7448826852       -3.5823718455        2.9454075949
 H         -2.9348893939       -2.7822078537        1.4203785661
 H          1.2124828897       -1.0763879866        1.1087058709
 H          2.2826172106        1.7086605239        1.5665621303
 H          3.5040566205        2.8373737767        3.3722331213
 H          5.9252384607        2.4300700746        3.6776479721
 H          7.1052245525        0.8750279249        2.1421962992
 H          7.1954787838       -1.9893443523       -1.4439064325
 H          6.0995808683       -3.1782766222       -3.3283892935
 H          3.6771807105       -2.8628505244       -3.7223791258
 H          2.3739799872       -1.3792472358       -2.2612650216
 H          2.3104902335        1.6778083503       -2.0022891603
 H         -3.8376147902        2.7034234736       -1.8954582507
 H         -6.1983460277        3.0861954663       -2.6379233184
 H         -7.8940888634        1.3155243741       -2.1593013984
 H         -7.1326282276       -0.7665041389       -1.0055505107
 H         -6.2468614426        0.4321492983        2.9643663878
  54
  -92.5639389103000       0.150582427290802      !
 C         -5.6344750340       -1.3308234471        3.2354455148
 C         -4.8132654139       -2.3247995016        2.7263628542
 C         -3.8167492544       -1.9783392990        1.8319968855
 C         -3.6929116842       -0.6391741564        1.4688294136
 C         -2.6364216815       -0.2181648267        0.5314638396
 N         -1.3825880003       -0.4754659474        0.8497588566
 C         -0.3731223654       -0.0461189009        0.0922063437
 C          0.9581286491       -0.3290119507        0.3553914873
 C          1.9550878922        0.2124101431       -0.4701533142
 N          3.3199555946       -0.0298289642       -0.2156986614
 C          3.9359939976        0.5323728038        0.8997192837
 C          3.2391001967        1.3115977961        1.8167755555
 C          3.8825450540        1.8491084413        2.9192688395
 C          5.2312078307        1.6248065642        3.1208859583
 C          5.9445583400        0.8649554562        2.2068734761
 C          5.3086509792        0.3250182003        1.1032932000
 O          6.0768688984       -0.4035016011        0.2334324831
 C          5.4629707615       -0.9174702876       -0.8783706995
 C          6.2515423769       -1.6337736767       -1.7609073047
 C          5.6916279152       -2.2000811479       -2.8955432826
 C          4.3383669952       -2.0547388535       -3.1361917877
 C          3.5430581198       -1.3380812369       -2.2576424197
 C          4.0920011459       -0.7477458411       -1.1243817609
 C          1.5670423377        1.0139760393       -1.5326584492
 N          0.2999823795        1.2577176991       -1.8197604190
 C         -0.6823891350        0.7688657751       -1.0814469407
 N         -1.9445253978        0.9812780210       -1.3916326797
 C         -2.9398113499        0.4921351288       -0.6444801665
 C         -4.3073085556        0.6900294183       -1.0902338425
 C         -4.6108216732        1.7296992576       -1.9778638926
 C         -5.9202011026        1.8906785997       -2.3811112573
 C         -6.8869871341        1.0154484484       -1.9021590553
 C         -6.4805967074        0.0016000263       -1.0464642583
 N         -5.2346106440       -0.1616129830       -0.6556941329
 N         -4.4636932869        0.3153684235        1.9738734440
 C         -5.4064070083       -0.0240660111        2.8296139011
 H         -6.4257445436       -1.5610415662        3.9317949085
 H         -4.9456376538       -3.3550885279        3.0250017888
 H         -3.1502279840       -2.7153112953        1.4131244456
 H          1.2164847363       -0.9609760043        1.1891354014
 H          2.1890827714        1.5014411879        1.6631681042
 H          3.3193313935        2.4481208623        3.6177679963
 H          5.7341657025        2.0415482577        3.9789164507
 H          6.9998455978        0.6812932778        2.3294176682
 H          7.3015351785       -1.7381500873       -1.5393641065
 H          6.3135864972       -2.7556215573       -3.5791717474
 H          3.8893813863       -2.5005160134       -4.0100618015
 H          2.4866647785       -1.2360696140       -2.4486836618
 H          2.2969616502        1.4731736265       -2.1840183603
 H         -3.8174929393        2.3746838935       -2.3192096549
 H         -6.1897544563        2.6870739314       -3.0601708856
 H         -7.9221013936        1.1122319822       -2.1893296314
 H         -7.1866459029       -0.7211824859       -0.6574368124
 H         -6.0043676445        0.7943480080        3.2095983555
  54
  -92.5639380066000       0.150438495550792      !
 C         -5.6673462607       -1.5242974168        3.1146645558
 C         -4.8171725244       -2.4822809358        2.5844987841
 C         -3.8104168017       -2.0824604774        1.7246111593
 C         -3.7050934671       -0.7278750208        1.4160579118
 C         -2.6420043207       -0.2547833977        0.5132040835
 N         -1.3901897508       -0.5382842202        0.8215008714
 C         -0.3755155689       -0.0709662676        0.0947067095
 C          0.9546927325       -0.3636528609        0.3570795369
 C          1.9557546758        0.2135493340       -0.4370072393
 N          3.3220080159       -0.0370005571       -0.1848871769
 C          3.9667425291        0.6020064598        0.8694227288
 C          3.2877404059        1.4309025619        1.7554191195
 C          3.9594087984        2.0482500835        2.7975598334
 C          5.3169364679        1.8523780915        2.9681597394
 C          6.0101928008        1.0362776444        2.0874310469
 C          5.3462912329        0.4154422206        1.0446638848
 O          6.0911379714       -0.3723401356        0.2061830852
 C          5.4451105301       -0.9707110635       -0.8438819139
 C          6.2055467076       -1.7526687443       -1.6946343688
 C          5.6100916270       -2.3979200956       -2.7676623798
 C          4.2512575496       -2.2620288880       -2.9819350577
 C          3.4836148069       -1.4797884966       -2.1353714508
 C          4.0674331539       -0.8174077846       -1.0612308161
 C          1.5774855816        1.0590925644       -1.4675233250
 N          0.3127676672        1.3237724726       -1.7470333717
 C         -0.6744691683        0.8053603925       -1.0361693231
 N         -1.9344694396        1.0449149401       -1.3378285662
 C         -2.9348301224        0.5233043299       -0.6211563061
 C         -4.3003131403        0.7587121289       -1.0590592553
 C         -4.5985680307        1.8764846031       -1.8472758496
 C         -5.9060400921        2.0751562225       -2.2408143774
 C         -6.8746530451        1.1586161543       -1.8517917474
 C         -6.4724021662        0.0682810988       -1.0936828742
 N         -5.2286150205       -0.1306180809       -0.7120610658
 N         -4.5039585729        0.1917153159        1.9421552176
 C         -5.4562903449       -0.1985808221        2.7647753545
 H         -6.4678397278       -1.7961816585        3.7849322979
 H         -4.9360652548       -3.5258312488        2.8393310295
 H         -3.1213609009       -2.7893193607        1.2908604474
 H          1.2078581060       -1.0263679274        1.1678682538
 H          2.2299123423        1.5930932394        1.6239617196
 H          3.4116934413        2.6855148967        3.4741942069
 H          5.8421531210        2.3328769914        3.7782027132
 H          7.0706032908        0.8707176685        2.1900739259
 H          7.2617735838       -1.8445458391       -1.4987856654
 H          6.2102097734       -3.0055083346       -3.4261357034
 H          3.7773973528       -2.7662062943       -3.8096700302
 H          2.4229505053       -1.3797194239       -2.3034017963
 H          2.3133405202        1.5390737221       -2.0967385418
 H         -3.8038698032        2.5506646101       -2.1227274336
 H         -6.1721415482        2.9318459809       -2.8436052199
 H         -7.9081851780        1.2817180984       -2.1350278964
 H         -7.1800868287       -0.6886657150       -0.7797666167
 H         -6.0768532198        0.5930298553        3.1647700535
  54
  -92.5638601789000       0.138545315877568      !
 C         -5.6893402828       -1.8356162051        2.9172505054
 C         -4.7108651612       -2.7101783088        2.4700438842
 C         -3.6963114015       -2.2259808756        1.6648648846
 C         -3.7094658004       -0.8739719504        1.3239469283
 C         -2.6478840924       -0.3112204388        0.4827219999
 N         -1.3941779378       -0.6447584033        0.7446780099
 C         -0.3784995028       -0.0771857337        0.0993261045
 C          0.9528705384       -0.4052192461        0.3193406281
 C          1.9551394762        0.3113817319       -0.3478452893
 N          3.3225810203        0.0189867019       -0.1385190705
 C          4.0550910281        0.7375447130        0.7979576016
 C          3.4619166683        1.6873686589        1.6217641940
 C          4.2172572063        2.3786033847        2.5542180102
 C          5.5720609914        2.1324715406        2.6769521460
 C          6.1774428075        1.1859904345        1.8642095231
 C          5.4296316960        0.4898430338        0.9317443140
 O          6.0832116803       -0.4392168030        0.1644062603
 C          5.3517017447       -1.1111397468       -0.7802767416
 C          6.0212936204       -2.0256728602       -1.5730568598
 C          5.3364608754       -2.7372490521       -2.5465361206
 C          3.9814388801       -2.5293669919       -2.7247927896
 C          3.3036165876       -1.6156099732       -1.9350358016
 C          3.9757989971       -0.8969630136       -0.9530880873
 C          1.5837041908        1.3311331620       -1.2088922402
 N          0.3186663881        1.6324694788       -1.4522616936
 C         -0.6698781821        0.9783375473       -0.8691311867
 N         -1.9303470601        1.2390154959       -1.1594517042
 C         -2.9308789206        0.6020863114       -0.5498401280
 C         -4.2903070086        0.8411720279       -1.0142975247
 C         -4.6254106154        2.0703104783       -1.5909683708
 C         -5.9213343113        2.2614003219       -2.0270886442
 C         -6.8387917168        1.2288197797       -1.8875877949
 C         -6.3991724456        0.0381247121       -1.3263528457
 N         -5.1667653549       -0.1546953036       -0.9070766362
 N         -4.6341558056       -0.0325066588        1.7737498297
 C         -5.5931281940       -0.5024519612        2.5436853594
 H         -6.4999137425       -2.1747027060        3.5432874318
 H         -4.7381418224       -3.7545183591        2.7468604515
 H         -2.9096309999       -2.8639033388        1.2952114858
 H          1.2047339365       -1.1879347633        1.0154468417
 H          2.4050896814        1.8808690424        1.5271693125
 H          3.7377152578        3.1113665688        3.1843508793
 H          6.1623586373        2.6708446770        3.4012604822
 H          7.2316355430        0.9725055878        1.9385572623
 H          7.0784736950       -2.1651262185       -1.4138084300
 H          5.8663665054       -3.4479299675       -3.1606213928
 H          3.4418130812       -3.0767281008       -3.4818792713
 H          2.2469679613       -1.4520520114       -2.0771000524
 H          2.3223231342        1.9231208949       -1.7296864304
 H         -3.8698191139        2.8340464879       -1.6784159041
 H         -6.2163590391        3.2017057959       -2.4707983003
 H         -7.8614799167        1.3401936374       -2.2121562598
 H         -7.0654166915       -0.8077385080       -1.2127547379
 H         -6.3171495459        0.2280707861        2.8811547161
  54
  -92.5635011096000       9.474908449226065E-002 !
 C         -5.6855725916       -1.7968254370        2.9195406053
 C         -4.9419623162       -2.7095967784        2.1875921518
 C         -3.9263406143       -2.2457405021        1.3711874472
 C         -3.7080519703       -0.8716481499        1.3083205511
 C         -2.6360886904       -0.3233654259        0.4547289761
 N         -1.3883643211       -0.6443714158        0.7300525161
 C         -0.3709236209       -0.1115522438        0.0500607131
 C          0.9588490688       -0.4114282716        0.3025981800
 C          1.9607851289        0.2394188701       -0.4313862240
 N          3.3291720098       -0.0082205358       -0.1774620685
 C          3.9978938623        0.7238738737        0.7963408002
 C          3.3419993682        1.6513443091        1.5976710208
 C          4.0353597824        2.3587502858        2.5656250585
 C          5.3901895764        2.1522299710        2.7458597970
 C          6.0589390088        1.2323564730        1.9523547066
 C          5.3735764816        0.5215599018        0.9837165263
 O          6.0901624426       -0.3732101512        0.2319074147
 C          5.4186490262       -1.0679379048       -0.7403862407
 C          6.1484636908       -1.9597076828       -1.5052655637
 C          5.5252849052       -2.6965599836       -2.5012163958
 C          4.1708920096       -2.5383749380       -2.7281264164
 C          3.4330634148       -1.6471373454       -1.9668253398
 C          4.0438076046       -0.9003642320       -0.9659935424
 C          1.5841615984        1.1573020315       -1.3984621136
 N          0.3204287557        1.4376460055       -1.6642477994
 C         -0.6685773732        0.8591773051       -1.0008257075
 N         -1.9266399135        1.1307411875       -1.2778225949
 C         -2.9295211794        0.5578411607       -0.6023759935
 C         -4.2937651530        0.8528130361       -0.9975484392
 C         -4.5709568884        2.0029452273       -1.7479805441
 C         -5.8803610232        2.2656585472       -2.0923301008
 C         -6.8748717054        1.3814407626       -1.6918896238
 C         -6.4949516905        0.2560372263       -0.9748671843
 N         -5.2486864866       -0.0054961072       -0.6427221403
 N         -4.4010709625        0.0000294197        2.0288188550
 C         -5.3617117514       -0.4527805490        2.8095529265
 H         -6.4911593600       -2.1180908462        3.5614434881
 H         -5.1500622431       -3.7681290849        2.2534274373
 H         -3.3185556553       -2.9175112308        0.7861418612
 H          1.2120861576       -1.1273042139        1.0669532996
 H          2.2854815909        1.8164907974        1.4577951457
 H          3.5070881145        3.0734383888        3.1772645784
 H          5.9321744009        2.7023844945        3.4985253775
 H          7.1156478692        1.0528366419        2.0686797250
 H          7.2030911356       -2.0627855989       -1.3063001352
 H          6.1020923984       -3.3893668908       -3.0930405237
 H          3.6782403533       -3.1082501675       -3.5004798786
 H          2.3762669406       -1.5239456233       -2.1446862684
 H          2.3211484512        1.6869827275       -1.9850833362
 H         -3.7568174531        2.6506651881       -2.0302389522
 H         -6.1295228075        3.1485715829       -2.6637216633
 H         -7.9109484940        1.5551315624       -1.9364205358
 H         -7.2232078874       -0.4796415038       -0.6573894737
 H         -5.8967778597        0.3017318566        3.3720034669
  54
  -92.5620449461000       2.029404468045982E-002 !
 C         -5.5686724935       -1.6187856988        3.1522447502
 C         -5.1389961843       -2.4759074820        2.1497703687
 C         -4.1789674625       -2.0360457730        1.2581637027
 C         -3.6946370960       -0.7370781990        1.4018547787
 C         -2.6353437408       -0.2351412804        0.4946276740
 N         -1.3862055771       -0.4672702241        0.8258320858
 C         -0.3728430719       -0.0336069646        0.0699166377
 C          0.9574738527       -0.2768563138        0.3636730424
 C          1.9540327895        0.2146181147       -0.4939797493
 N          3.3187749483       -0.0015088549       -0.2199624612
 C          3.9262561484        0.6268222202        0.8644925745
 C          3.2266420275        1.4756375291        1.7152786004
 C          3.8614919824        2.0796543793        2.7879597791
 C          5.2039687449        1.8526391530        3.0249646826
 C          5.9203412208        1.0237828532        2.1755314386
 C          5.2932657859        0.4181619175        1.1013845972
 O          6.0644365151       -0.3755899217        0.2932155021
 C          5.4578492830       -0.9624762836       -0.7859846612
 C          6.2477910596       -1.7526232982       -1.6018191196
 C          5.6948726844       -2.3952189448       -2.6985858619
 C          4.3468713669       -2.2513864030       -2.9679758884
 C          3.5502420732       -1.4612055378       -2.1562097795
 C          4.0924983038       -0.7946871032       -1.0626157649
 C          1.5612221620        0.9279761215       -1.6170537111
 N          0.2958297162        1.1492368547       -1.9212238908
 C         -0.6869995693        0.7135093689       -1.1456917646
 N         -1.9463866276        0.9325239039       -1.4500055495
 C         -2.9457986112        0.4865159757       -0.6745293842
 C         -4.3078369329        0.7765152040       -1.0652782423
 C         -4.5580907397        1.6044018774       -2.1710057461
 C         -5.8659586987        1.8682749396       -2.5154014325
 C         -6.8922859549        1.3065664777       -1.7628723389
 C         -6.5440793261        0.4929675106       -0.6946267933
 N         -5.2987994383        0.2342150153       -0.3577158580
 N         -4.0865404581        0.0735706052        2.3705709879
 C         -5.0022423421       -0.3565394392        3.2188347646
 H         -6.3209306031       -1.9235303894        3.8632473687
 H         -5.5462259269       -3.4730368149        2.0667474782
 H         -3.8141935603       -2.6678269364        0.4645116385
 H          1.2168221335       -0.8500264927        1.2386945959
 H          2.1814011317        1.6670560673        1.5330315494
 H          3.2964849307        2.7321268907        3.4352222185
 H          5.6999988755        2.3204465180        3.8603102264
 H          6.9712720746        0.8360711215        2.3262572426
 H          7.2931391965       -1.8542076303       -1.3579086834
 H          6.3178220460       -3.0081700309       -3.3302775682
 H          3.9029282908       -2.7556230784       -3.8122017760
 H          2.4976466231       -1.3616695400       -2.3683399011
 H          2.2905970384        1.3372835151       -2.3018930834
 H         -3.7206887492        2.0089772199       -2.7165799224
 H         -6.0914783773        2.5045451807       -3.3595805587
 H         -7.9277468199        1.4932145847       -1.9995478362
 H         -7.2979852876        0.0217737775       -0.0762682996
 H         -5.2901233779        0.3495172918        3.9871518476
