118
 energy: -187.462181254865 gnorm: 0.000154216461 xtb: 6.7.1 (edcfbbe)
C            6.85428031852605       -4.40901438279368        1.78107053025468
C            6.58681165014859       -4.07060149797681        0.46469790510329
C            6.97914919872327       -2.83993528912565       -0.03186303002519
C            7.64138337731837       -1.94351537356989        0.79855197434589
N            8.01488334630709       -0.67538403970600        0.30072150634825
C            7.14259098148641        0.32050946961821       -0.08851014301931
C            5.70036849102014        0.24716964583943       -0.02522135457229
C            4.99911111654915       -0.50803389299360        0.92109560884429
C            3.62452115266638       -0.55263200170422        0.90321177046194
C            2.87898772719534        0.17437214249693       -0.03705334365210
C            1.42837238363885        0.10807506700300       -0.05196342234127
C            0.65203134856874        1.30793147978757       -0.02692166999888
C            1.24738737115580        2.56881435213462        0.10115435978349
C            0.49949076013932        3.73753876141488        0.02899567002612
C           -0.86430502628348        3.66747511308464       -0.17929636054031
C           -1.49092746676398        2.42859982838141       -0.23570134866420
C           -0.77160238533002        1.23554218753373       -0.09628633164368
C           -1.42435232159992       -0.03622525243947       -0.05776117266534
C           -2.87473477209204       -0.10548004135078       -0.05061009478491
C           -3.62853237867183        0.62295777621732        0.88188260798336
C           -5.00281889647834        0.56684833624934        0.89711513409739
C           -5.69585695979525       -0.20175422962630       -0.04452211652417
C           -7.13667895291773       -0.29733593402016       -0.10536606087695
N           -7.75600804857612       -1.36362135121368       -0.56615704467724
C           -9.08155157677296       -1.10044637164725       -0.47350172516593
C          -10.16735841076923       -1.95248771749131       -0.82866872062683
C           -9.98706076035968       -3.23933607294439       -1.32393506278814
C          -11.08293391877541       -4.02456695772183       -1.64169507291578
C          -12.36260959650776       -3.53470327065847       -1.47324975613084
C          -12.58101411253559       -2.24285835322523       -0.98332812835407
C          -13.89694962221079       -1.72138401629639       -0.81852847229954
C          -14.09515376987918       -0.46297658589434       -0.36545075214998
C          -12.99963419832738        0.38635875131937       -0.03033596102778
C          -13.21366773280874        1.69434191358060        0.41562878054074
C          -12.14768858478757        2.51566664439960        0.71639252269479
C          -10.84786844596410        2.05155034191031        0.60522227690641
C          -10.58592329888552        0.74657418743379        0.18795176152895
C          -11.67668817032236       -0.10480865641029       -0.16031040339619
C          -11.47151478117158       -1.42696500697239       -0.64839495803638
C           -9.28619281617047        0.18076958231745        0.04902441518071
N           -8.02695744350038        0.67970114803308        0.29092581887146
C           -7.67932586675288        1.95211361104810        0.79682808430340
C           -7.94617614070242        2.27033888023798        2.12539426750599
C           -7.58092339815025        3.51012754235765        2.61820789733498
C           -6.94796449740678        4.42840841401442        1.79506889855476
C           -6.68218332757344        4.10834704391616        0.47376541229586
C           -7.04680274988625        2.87232823142193       -0.03070692310154
C           -4.94891222313687       -0.94916486077260       -0.96599991587260
C           -3.57605676900754       -0.90727760328173       -0.96596596225408
C           -0.64797882152511       -1.23597843577245       -0.02274256478296
C           -1.24348857955123       -2.49615300341854        0.11141198101127
C           -0.49536472993945       -3.66522475774174        0.04775356145947
C            0.86890799558060       -3.59624870532978       -0.15762674614192
C            1.49562382720764       -2.35767260770557       -0.21859674922128
C            0.77581256846071       -1.16389090318788       -0.08736619312233
C            3.58865379359756        0.96669213242221       -0.95399509721317
C            4.96202173026686        0.99717235543389       -0.95116142384585
N            7.78056463908990        1.37669905284725       -0.54636723498073
C            9.10131953803832        1.08740287395855       -0.45905842652457
C           10.20248168666352        1.91938676040834       -0.81451730879160
C           10.04597313497036        3.21123997576121       -1.30487177445729
C           11.15602466009662        3.97576600443520       -1.62385842824745
C           12.42640074032118        3.46038547927238       -1.46118262588667
C           12.62097253407282        2.16299441574962       -0.97597655164939
C           13.92700277734828        1.61550359193927       -0.81672708513818
C           14.10204106781354        0.35182249328229       -0.36882620143586
C           12.99111726554873       -0.47759077213984       -0.03452582664929
C           13.18082333816110       -1.79159863040947        0.40458874898078
C           12.09986429483890       -2.59382099206230        0.70343756891545
C           10.80904477516593       -2.10402477856426        0.59789851338718
C           10.57152651773987       -0.79188219774324        0.18859720717739
C           11.67763948585784        0.03977661114925       -0.15870178085190
C           11.49672640515107        1.36772768458269       -0.64057471081311
C            9.28273859124940       -0.19992482552275        0.05689872132351
C            7.90991787707171       -2.28009218570074        2.12219144703358
C            7.51679749615069       -3.51448838162949        2.60708590091883
H            6.54622247749794       -5.36968372917432        2.16488704173653
H            6.07230669676006       -4.76627352011140       -0.18079477854646
H            6.77411983548831       -2.56391985531066       -1.05590509756865
H            5.52935922034781       -1.04181099285607        1.69420464821268
H            3.10234338204268       -1.12275238354124        1.65798525100670
H            2.31148560265383        2.63818979062818        0.26615613304235
H            0.99302894110909        4.69389498293060        0.12050602827579
H           -1.45070055828508        4.56852821493011       -0.28268448021405
H           -2.55736242927280        2.38855172503324       -0.39615802711238
H           -3.11281621401955        1.20164398289397        1.63457078995082
H           -5.53893019908632        1.10152025208442        1.66546455368908
H           -8.97979633176461       -3.60599083241050       -1.44908656920186
H          -10.93427753253007       -5.02439457148067       -2.02351115533050
H          -13.21630011531514       -4.14845629643645       -1.72390600338274
H          -14.73320267322371       -2.35767780809792       -1.07173255951264
H          -15.09453971491916       -0.06786266150985       -0.24886141748470
H          -14.22679696633614        2.05752393473370        0.51143487744723
H          -12.32138131127105        3.53112778227547        1.04216996542259
H          -10.03162336835945        2.71615689215695        0.83710643158061
H           -8.43729144630228        1.54438491343812        2.75763430756939
H           -7.78817201929578        3.75626757615797        3.64879761587349
H           -6.66179744873948        5.39340262854827        2.18490200260284
H           -6.19102904913810        4.82275544128354       -0.16945824297994
H           -6.84287404970727        2.61053221449040       -1.05868767970951
H           -5.48229165796545       -1.54992998139585       -1.68666989488049
H           -3.02304995343466       -1.46001726347496       -1.71138673287734
H           -2.30794792687726       -2.56483522690458        0.27426238519982
H           -0.98910951240685       -4.62104913875777        0.14351923172226
H            1.45558388973453       -4.49779262865142       -0.25486865395956
H            2.56248845745707       -2.31845789607587       -0.37634864915332
H            3.04203370578819        1.51946063764393       -1.70404387919424
H            5.50182746341511        1.58925351140045       -1.67425445863190
H            9.04575816636071        3.59812273817503       -1.42548285169662
H           11.02588187415718        4.97940218235677       -2.00234315654705
H           13.29113133092148        4.05810910806752       -1.71270251395144
H           14.77480795228560        2.23641763919790       -1.06975278382368
H           15.09389413435432       -0.06296754211167       -0.25638042881452
H           14.18693251348796       -2.17473186816103        0.49629909976661
H           12.25467256879784       -3.61415864038211        1.02338421569914
H            9.98058947468882       -2.75406814297024        0.82780076541574
H            8.42395386923304       -1.57252032051185        2.75704063978733
H            7.72542802330333       -3.77490254847897        3.63388523460989
