118
 energy: -187.528618783777 gnorm: 0.000029273451 xtb: 6.7.1 (edcfbbe)
C            6.60411074150949       -4.06688232212458        2.23807325000013
C            6.30627978095180       -3.85407110525909        0.90224133587031
C            6.76738485247858       -2.71954111433510        0.25775812646654
C            7.53058060206271       -1.79325002687580        0.95821264878033
N            7.96651824155968       -0.61652965573835        0.31114317692114
C            7.13406796154655        0.35405252691353       -0.19769352330771
C            5.68114787129847        0.30135356671262       -0.13716073227037
C            4.99531289483182       -0.16006623744645        0.98500763391974
C            3.61529682359222       -0.20958828186244        0.98654081679281
C            2.88531740033670        0.20658958343662       -0.12365428747044
C            1.40966690837326        0.12445187277514       -0.12615965346635
C            0.64232340881847        1.29846081643999       -0.11721723863517
C            1.24387068897504        2.58418392290437       -0.06632166121898
C            0.49097394380885        3.71774364097086       -0.08691872471355
C           -0.91397026037554        3.63618689403673       -0.16593613731234
C           -1.53095796652530        2.42332267427638       -0.19052110065845
C           -0.78513970018653        1.21534288950920       -0.14273744968666
C           -1.41081639473426       -0.04025499360221       -0.13758357165156
C           -2.88614759864837       -0.12554769197092       -0.14580296560519
C           -3.62520171449800        0.28785674382050        0.95937015293272
C           -5.00452759158194        0.22350292245910        0.95214456609424
C           -5.68065000385943       -0.25065757366779       -0.17060997750336
C           -7.13237061033824       -0.33042778541355       -0.23008292276721
N           -7.78070077794431       -1.33226205238925       -0.77217167020304
C           -9.10194070587978       -1.04794113609908       -0.62017375519819
C          -10.21641912557275       -1.84436756797947       -1.01279830843999
C          -10.08138712008009       -3.08429424262049       -1.62789229535968
C          -11.20418355958882       -3.82048358875121       -1.96681567059761
C          -12.46664357564186       -3.32885317277586       -1.69971294356878
C          -12.63990460808950       -2.08316324844127       -1.08888835509387
C          -13.93778878435742       -1.55844609986307       -0.82036098208337
C          -14.09330148187091       -0.34072190572517       -0.25438074214064
C          -12.96884571508072        0.46125757836869        0.10205260680189
C          -13.13778602570785        1.73148195175860        0.66064022786962
C          -12.04433327174355        2.50918550303786        0.97802797134678
C          -10.75956654477764        2.03334712177568        0.77613030198581
C          -10.54262171017842        0.76049049521708        0.25116470038110
C          -11.66212185029374       -0.03904057209567       -0.12407002432748
C          -11.50200953911367       -1.31691940056840       -0.73228908947646
C           -9.26073993847548        0.17991058688763        0.02373943288972
N           -7.98259550281070        0.62457042534884        0.27873754933181
C           -7.56506482612812        1.81702833737800        0.90889010390007
C           -7.85600787142774        2.03824235432521        2.25163929735737
C           -7.40948866561418        3.19373875385381        2.86705269952184
C           -6.66925971445812        4.12276009001636        2.15291983141939
C           -6.37682139282884        3.89780324707854        0.81789006416741
C           -6.82274977132056        2.74731140740090        0.19137731813599
C           -4.94086908128391       -0.69219524753340       -1.26776833030105
C           -3.56270163367285       -0.62705163583198       -1.25579019553593
C           -0.64349747142164       -1.21444385075605       -0.12505980189407
C           -1.24503769692042       -2.50044871287670       -0.08084008489775
C           -0.49190537253030       -3.63389860433878       -0.09864121713411
C            0.91346589805542       -3.55203482509804       -0.16792346852472
C            1.53027558852249       -2.33897933774784       -0.18484199220588
C            0.78402260168031       -1.13119157942032       -0.13941334660193
C            3.57161865177208        0.70084919436398       -1.23083237300167
C            4.95043715324911        0.75082714474497       -1.23727995786226
N            7.80093804756876        1.33871481168929       -0.74880074564096
C            9.11661616960564        1.02634237905991       -0.60359636690999
C           10.24624795896307        1.79531405851935       -1.00776969851712
C           10.13554275370163        3.03631465528129       -1.62554207545632
C           11.27248997273741        3.74527493925675       -1.97517165734884
C           12.52520714990898        3.22455482857362       -1.71756771118026
C           12.67406004389479        1.97634887736058       -1.10544160963045
C           13.96140587132023        1.42077286940935       -0.84851889874513
C           14.09298195183873        0.20062603642909       -0.28169111502393
C           12.95300000585123       -0.57268401284613        0.08843509623662
C           13.09657685176500       -1.84524187274985        0.64883135728202
C           11.98776963644277       -2.59472757326776        0.98052115498815
C           10.71303912794616       -2.08783584640873        0.79091288045995
C           10.52194766943546       -0.81181990267615        0.26358659042798
C           11.65667510316944       -0.04104925734843       -0.12564564425449
C           11.52143850171773        1.23849610962952       -0.73643416275220
C            9.25232759387883       -0.20161181694839        0.04531369036533
C            7.82743924696750       -2.00241102890134        2.30164446094724
C            7.36558810264294       -3.14201963661031        2.93503872186978
H            6.24249545581161       -4.95283755940491        2.73742944064233
H            5.71375847773993       -4.57302097795362        0.35698289669320
H            6.53984544425571       -2.54278840337611       -0.78333501458442
H            5.53771904262689       -0.46679212398705        1.86650434755237
H            3.09196206715549       -0.56888818874476        1.86092683782697
H            2.32032361213685        2.64775604725836       -0.00926151432779
H            0.96469289695552        4.68796644129723       -0.04792491684420
H           -1.49565109741556        4.54588700068542       -0.20234328780356
H           -2.60750523700687        2.36224885174595       -0.24846490703924
H           -3.10948590812098        0.65428929604476        1.83531401146763
H           -5.55386521363512        0.52652818122375        1.83062483427711
H           -9.08721481026908       -3.45426793803951       -1.82707933912794
H          -11.09086006744709       -4.78443395332289       -2.44181395982311
H          -13.34117441293069       -3.90558019672794       -1.96604139498505
H          -14.79580166496137       -2.15821473110788       -1.08970962590522
H          -15.07941834218397        0.05779715014178       -0.06112644491896
H          -14.13859871160946        2.10204500068556        0.82995977890507
H          -12.18437856667508        3.49862904654671        1.38894747415282
H           -9.92055473318021        2.66402691556874        1.02252411859238
H           -8.42938144048074        1.30452953259637        2.79999519324528
H           -7.63732139655826        3.36467202148914        3.90847969427575
H           -6.31957390318706        5.02115201220364        2.63836144268331
H           -5.80029433607531        4.61945246989212        0.25921106402575
H           -6.59917518432917        2.56100934433232       -0.84892951300197
H           -5.46774579312663       -1.07947647684327       -2.12661760213264
H           -2.99806772732740       -0.95793004169144       -2.11555661994783
H           -2.32176545756988       -2.56476068125829       -0.03099442325506
H           -0.96588673945526       -4.60418307567343       -0.06492192220134
H            1.49556988993960       -4.46151508574710       -0.20279616836890
H            2.60710191818006       -2.27753888677620       -0.23496032451662
H            3.01423818424264        1.03588591559136       -2.09370403216846
H            5.48511935204489        1.12985947721535       -2.09498014818786
H            9.14887488105843        3.42899850194146       -1.81831419580312
H           11.17765312910538        4.71058071632952       -2.45147046441195
H           13.41087168711754        3.77969076682026       -1.99282219258259
H           14.83100269986045        1.99891689367944       -1.12784106452611
H           15.07099985525826       -0.22164188409705       -0.09797365248620
H           14.08977361217215       -2.23991743041626        0.80832628729398
H           12.10760106687720       -3.58606268901183        1.39323936300185
H            9.86145953015274       -2.69678956523792        1.04856743317403
H            8.41791260745457       -1.27199822517138        2.83610196353766
H            7.59805943433358       -3.30371361943799        3.97691331660722
