118
 energy: -187.462084208455 gnorm: 0.000056243333 xtb: 6.7.1 (edcfbbe)
C            6.87626556037095       -4.41375871743170        1.92586017166380
C            6.64402892364228       -4.13623750877426        0.58870996715028
C            7.02731233214737       -2.91913733840029        0.05306139870728
C            7.64510869086571       -1.97534203387067        0.86506023833726
N            8.01447973864831       -0.72319337272172        0.32478844456552
C            7.14290112894340        0.24927857850669       -0.12131990369153
C            5.70042778435802        0.17738998951199       -0.07612433549299
C            4.98312276389352       -0.56231490514567        0.87051544995261
C            3.60847828924743       -0.59704469056469        0.83794561725993
C            2.87870567011438        0.12718941517923       -0.11634376578100
C            1.42738630098713        0.07836435245234       -0.13942766184064
C            0.66664282252605        1.28808418820059       -0.12113151710194
C            1.27772267015763        2.54198716842048        0.00233105470170
C            0.54409446549827        3.71945691042948       -0.07139363472289
C           -0.82087125624820        3.66565677046238       -0.27748237686433
C           -1.46253129694883        2.43450985557717       -0.33138724337062
C           -0.75761757625182        1.23303180625828       -0.19023285046154
C           -1.42618276574022       -0.03041089146310       -0.14968289746048
C           -2.87712693322428       -0.07978694921486       -0.13542689150880
C           -3.61405786961020        0.65703227504595        0.80385038214966
C           -4.98852874852350        0.61638665103794        0.83233622096467
C           -5.69984389693964       -0.14205521885035       -0.10425440290489
C           -7.14108318067264       -0.22839343633900       -0.14975192804577
N           -7.76853998082770       -1.27451087225898       -0.64620937707931
C           -9.09189762575277       -1.01827381175371       -0.51860891819456
C          -10.18316355615538       -1.85686844231235       -0.88887402611702
C          -10.01047839105401       -3.11666728976359       -1.45165512467537
C          -11.11104868923351       -3.89131635216629       -1.77910914333626
C          -12.38783268796160       -3.41860427796003       -1.55057175332006
C          -12.59877821327998       -2.15407954393034       -0.99105582423401
C          -13.91200932932506       -1.65100150301365       -0.76086787969317
C          -14.10355924577202       -0.41794255328020       -0.24023673685679
C          -13.00327797073746        0.42234855349904        0.10195915022590
C          -13.21119037222804        1.70566726347990        0.61717211147327
C          -12.14135240427079        2.51984681324683        0.92366117185067
C          -10.84300405083595        2.07178333175231        0.74894216918494
C          -10.58627995534156        0.78953463353872        0.26345147820260
C          -11.68221674047973       -0.05212002666296       -0.09230903068930
C          -11.48429090803680       -1.34818474444052       -0.64855221928283
C           -9.28842677786266        0.23792211455327        0.06453587470717
N           -8.02572277017709        0.72891087355802        0.30411052055618
C           -7.67666105306908        1.98416452793029        0.85119947074741
C           -7.89787643928380        2.24198585591922        2.20116506178195
C           -7.53527456133907        3.46709342590377        2.73132188217350
C           -6.95129810134898        4.43066967944231        1.92384083236431
C           -6.73084071469628        4.17064026278575        0.58119099253786
C           -7.09247574912086        2.94947364215836        0.03965546173908
C           -4.96919811900307       -0.89379320045351       -1.03606619430863
C           -3.59618803600301       -0.86977001448169       -1.04734394489126
C           -0.66533023689232       -1.24000042694342       -0.11324002569038
C           -1.27667822801445       -2.49267495716572        0.02012103707807
C           -0.54226764854205       -3.67067823655581       -0.03616477845486
C            0.82417428071499       -3.61879564900116       -0.23265293795815
C            1.46594689868744       -2.38814726108538       -0.29417527267955
C            0.75942401622816       -1.18538556894363       -0.17214616565978
C            3.60385295869161        0.90174973049249       -1.03615354762132
C            4.97713534896871        0.92009386484946       -1.02019979083533
N            7.78326660682918        1.28969659107115       -0.61210479003017
C            9.10351815112190        1.01399175953043       -0.48871470921132
C           10.20556705796659        1.83947059237159       -0.85631780937097
C           10.04936778560491        3.10640857444344       -1.40783227313617
C           11.16001898158883        3.86714171295534       -1.73376240046890
C           12.43056283155427        3.37319373885738       -1.51543990357514
C           12.62490755304506        2.10097873121716       -0.96755057149846
C           13.93140662944291        1.57578996564740       -0.74867679519690
C           14.10663268001380        0.33562118621467       -0.23933496701560
C           12.99533367924215       -0.49032320011172        0.10217978535347
C           13.18608811749047       -1.78081735752678        0.60590308352021
C           12.10544716166912       -2.58094326595958        0.91144712112862
C           10.81324913342330       -2.11146265919626        0.74748868332869
C           10.57387091161662       -0.82146111968490        0.27391656290370
C           11.68073452929298        0.00606444927539       -0.08097892186227
C           11.49993172183120        1.30939249332666       -0.62595488881580
C            9.28356716562046       -0.24873828474492        0.08528287524877
C            7.87781873535709       -2.25055769912627        2.20957612153420
C            7.49380158793745       -3.47171630468149        2.73372525131534
H            6.57593787394027       -5.36421274823989        2.33995838154501
H            6.16438958450318       -4.86907005218634       -0.04235480068662
H            6.84938784181472       -2.68997614126405       -0.98747158573691
H            5.49999597377797       -1.09172602607938        1.65536025899142
H            3.07357208655433       -1.15541268953979        1.59263696793858
H            2.34287312306206        2.59858511654091        0.16544276117897
H            1.04921850565551        4.66998429869998        0.01760901026983
H           -1.39634015740700        4.57367401337173       -0.38133788003697
H           -2.52950839371797        2.40700282913955       -0.49087754654488
H           -3.08483522468914        1.22926682441073        1.55210950858691
H           -5.50976925531311        1.15546078075014        1.60745305503727
H           -9.00527685792758       -3.47098143442823       -1.62124392464536
H          -10.96839347907095       -4.86987205054109       -2.21453904884273
H          -13.24515903678963       -4.02476847519616       -1.80713862650441
H          -14.75193550965137       -2.28004961554871       -1.01995914306059
H          -15.10119277893068       -0.03663368797678       -0.07348205806954
H          -14.22298402903217        2.05577427884950        0.76264067855362
H          -12.31082391259151        3.51673446502368        1.30428968236875
H          -10.02402843657656        2.73065512995229        0.98718047414355
H           -8.35191914218973        1.48139514429819        2.82017225136592
H           -7.70681092991686        3.66686305090511        3.77835784328633
H           -6.66785796786812        5.38426042592050        2.34258556427097
H           -6.27744362334195        4.92027695607467       -0.04954840717434
H           -6.92338476749235        2.73374847884121       -1.00519592274225
H           -5.51631329376615       -1.48530557653279       -1.75395746049100
H           -3.05632274886689       -1.42734383252634       -1.79878523526984
H           -2.34280008645734       -2.54827351765427        0.17692163532172
H           -1.04791386165629       -4.62032085984824        0.05909507478291
H            1.40053729704016       -4.52773410864142       -0.32255059048341
H            2.53425102913538       -2.36184290022832       -0.44478770745229
H            3.06920312016715        1.45100303558890       -1.79733421083655
H            5.52946187037606        1.49871331474280       -1.74463637936367
H            9.04883370221536        3.47710910277537       -1.56987788379987
H           11.03027899968356        4.85134702448837       -2.16037554875919
H           13.29577315901215        3.96836587463730       -1.77126778520985
H           14.77959586420832        2.19389121962785       -1.00722490056868
H           15.09911467455018       -0.06252020931378       -0.08139939241346
H           14.19310101639336       -2.14763151911801        0.74308203428017
H           12.26155022858228       -3.58344902222084        1.28292446614806
H            9.98541641375885       -2.75973003175040        0.98430535115430
H            8.35763493375755       -1.50644243521106        2.82918609170326
H            7.67481372164807       -3.68506563916778        3.77649112265098
