44
 energy: -74.347037665094 gnorm: 0.000059497321 xtb: 6.7.1 (edcfbbe)
O            3.72266756499521        2.35291083873773        1.47321381473451
C            3.37540853206171        1.35664726972175        0.82412052896230
C            4.32872333040459        0.45545292938276        0.19212211558960
C            5.69707960194193        0.73372518489810        0.33446090340690
C            6.63871355414211       -0.08963439703211       -0.23001620560418
C            6.24157013809969       -1.21549156707436       -0.95572362285024
C            4.90870885669775       -1.50396785798579       -1.10663681594772
C            3.92940366468951       -0.67194800710714       -0.54017214023775
C            2.53336001026621       -1.02563407763037       -0.74477015968456
O            2.17882228013715       -2.02120354113971       -1.38948301159564
C            1.58016983410744       -0.11770896668471       -0.12175268562135
C            0.21573606316894       -0.39497282555734       -0.26515783858493
C           -0.73313076056207        0.42926057913170        0.30441192635579
N           -2.09163585999549        0.13657365275696        0.15115259557276
C           -2.68784370691058       -1.08663271101273        0.38568551567960
C           -2.12927811232001       -2.26432879099528        0.86364830252762
C           -2.96837186968209       -3.34959034893310        1.03744582032412
C           -4.32878415781940       -3.26903594837666        0.75297981798052
C           -4.89443317122793       -2.09074616331806        0.29738949717205
C           -4.07280620691273       -0.98971964108457        0.11462098713892
C           -4.31096267702014        0.36350996215602       -0.31579739662864
C           -5.44296617851307        1.05089726416398       -0.72312990720944
C           -5.31218678963629        2.37679660103054       -1.09934297600338
C           -4.07168558843859        3.00847198521924       -1.08580271381884
C           -2.92805093906724        2.34305669780759       -0.68382208471928
C           -3.05831721915000        1.02071013710516       -0.28028055215268
C           -0.33001888831145        1.56935818158390        1.02755411926453
C            1.00036569996528        1.85376539331746        1.16255030202095
C            1.98269805662698        1.00947260445406        0.61495533270211
H            5.97413235147392        1.60905767794832        0.90313761879964
H            7.68870428519889        0.13329117868257       -0.11182829774049
H            6.98491728820075       -1.86007719479174       -1.40091033067281
H            4.57241268790708       -2.36626630079072       -1.66320720183970
H           -0.07300326714602       -1.25470970206494       -0.85150692023972
H           -1.07834805277959       -2.33236701973329        1.09780282938397
H           -2.55866395085165       -4.27885311001504        1.40300595632297
H           -4.95098491095442       -4.13911213119498        0.89823833624693
H           -5.95190489772349       -2.02641450219151        0.09166624084862
H           -6.40356272059904        0.55975857823495       -0.74907223622209
H           -6.18245551638617        2.92972233691539       -1.41898432108110
H           -3.99924629983265        4.03823943827800       -1.40141928167080
H           -1.96650065116977        2.83259809935827       -0.69849385575979
H           -1.07807184653121        2.19218706629538        1.49393450581335
H            1.34329361232005        2.71463056517478        1.71777120219295
