44
 energy: -74.401742420132 gnorm: 0.000194591709 xtb: 6.7.1 (edcfbbe)
O            3.73843093080283        2.39958596998678        1.35122755541895
C            3.39184790746024        1.39188206711540        0.76110733434020
C            4.37442509856666        0.45313860992851        0.17384695889735
C            5.73075903556052        0.74234517199152        0.29791220206594
C            6.68469095382409       -0.10325275953829       -0.23787349932886
C            6.29312315012311       -1.25358730869615       -0.90711040522083
C            4.94950150015594       -1.55243502675826       -1.03684405939562
C            3.97904382901521       -0.70869244070928       -0.50147587781244
C            2.55575704872562       -1.07203339612638       -0.66463086076950
O            2.20867779045674       -2.09107111002802       -1.23124632628342
C            1.57303969790502       -0.12384515661563       -0.09109948445703
C            0.22225088866762       -0.40706007201337       -0.23863616066167
C           -0.74789249357697        0.44529352901159        0.28366330648561
N           -2.09858388246083        0.15022158213511        0.13177516338814
C           -2.68969396478499       -1.08473533881119        0.35102528587200
C           -2.12817811640087       -2.26685501122781        0.81004322691451
C           -2.96396179193040       -3.35529066297693        0.97829209348156
C           -4.32783482883172       -3.27452275495648        0.71035507624247
C           -4.89724940267266       -2.09159168112746        0.28234234554130
C           -4.07703883887833       -0.98577387752499        0.10543859712759
C           -4.32936310661210        0.37230238012822       -0.29250143537857
C           -5.47593877410143        1.05151612673844       -0.68061956229678
C           -5.36728068271576        2.38027683276898       -1.04067689881416
C           -4.13237244532542        3.02309971607309       -1.03596498100918
C           -2.97743970437347        2.36660437860111       -0.65283415431293
C           -3.08570455625276        1.04119813786926       -0.25881009071022
C           -0.34578361437853        1.59948243892196        0.96259746967483
C            0.99447168609212        1.88643767453806        1.10327854223824
C            1.97208524861422        1.03806745298620        0.58348946226466
H            6.01317325133425        1.64316766908031        0.82254456680751
H            7.73331477024744        0.13295849477590       -0.13514905043777
H            7.03589066698865       -1.91562312491617       -1.32649375337424
H            4.62198152792644       -2.44275783984750       -1.55314116732173
H           -0.05991226759992       -1.29136576810517       -0.79058987094286
H           -1.07685894571047       -2.34094685277467        1.04172541192863
H           -2.54819606795172       -4.28804137791406        1.32886418618090
H           -4.94650822970365       -4.14810879735726        0.85096959610766
H           -5.95758435199914       -2.02115070145377        0.09315330246088
H           -6.42885536536198        0.54521937732548       -0.70496897943968
H           -6.24693847831748        2.92856756790279       -1.34270157727812
H           -4.07289813899801        4.05664076974906       -1.34304897367002
H           -2.02388889332766        2.87169700749705       -0.67879527541797
H           -1.09112630624124        2.24939682174787        1.39505626721340
H            1.31830055989967        2.77127632787384        1.63102958488185
