  44
        -74.40173685
 O          3.7359377972        2.4071793781        1.3400081585
 C          3.3906381344        1.3955427665        0.7560914554
 C          4.3741365007        0.4565277148        0.1710740943
 C          5.7302325162        0.7458748914        0.2973811617
 C          6.6851091301       -0.0994867586       -0.2373312620
 C          6.2946344216       -1.2494388410       -0.9080477236
 C          4.9512520594       -1.5484163763       -1.0398272696
 C          3.9798970929       -0.7053046605       -0.5049799164
 C          2.5568889529       -1.0689859035       -0.6700470499
 O          2.2108109355       -2.0863384851       -1.2401405405
 C          1.5733079179       -0.1245305448       -0.0918285305
 C          0.2226864472       -0.4104134773       -0.2368465663
 C         -0.7478493559        0.4398340740        0.2880106588
 N         -2.0987103772        0.1456063263        0.1352961023
 C         -2.6924191615       -1.0880945041        0.3534903966
 C         -2.1335039786       -2.2715420671        0.8123149053
 C         -2.9718264370       -3.3579627756        0.9809237216
 C         -4.3356384928       -3.2738204461        0.7136638926
 C         -4.9021936484       -2.0898783386        0.2846386264
 C         -4.0793579104       -0.9861486471        0.1068047119
 C         -4.3283322793        0.3721476470       -0.2925231891
 C         -5.4724492530        1.0534457905       -0.6842667858
 C         -5.3600922053        2.3816588087       -1.0451787885
 C         -4.1239914035        3.0221201670       -1.0376620278
 C         -2.9713814720        2.3634977421       -0.6513068727
 C         -3.0833986094        1.0384702728       -0.2571037908
 C         -0.3465920577        1.5930291895        0.9692377318
 C          0.9933207634        1.8824440121        1.1077048833
 C          1.9713858203        1.0373720307        0.5834167782
 H          6.0116710886        1.6464392455        0.8230300773
 H          7.7335576305        0.1366385376       -0.1327312320
 H          7.0381082379       -1.9111537879       -1.3268087274
 H          4.6245709477       -2.4382409023       -1.5575279024
 H         -0.0589729273       -1.2941154556       -0.7900514304
 H         -1.0821970761       -2.3479770415        1.0431673778
 H         -2.5583182760       -4.2917763637        1.3313369917
 H         -4.9564820275       -4.1456470413        0.8554715849
 H         -5.9623501374       -2.0169825824        0.0955870764
 H         -6.4263304224        0.5491796274       -0.7108917878
 H         -6.2378035567        2.9314956926       -1.3499435158
 H         -4.0616637712        4.0552987288       -1.3453231373
 H         -2.0166978821        2.8666765614       -0.6746173425
 H         -1.0925258723        2.2404552376        1.4044180641
 H          1.3166236118        2.7669112310        1.6364094074
