44
 energy: -74.347037676332 gnorm: 0.000035184394 xtb: 6.7.1 (edcfbbe)
O            3.73834069077358        2.32761723899502       -1.48046838513865
C            3.38505192436800        1.33574387830276       -0.82793407625705
C            4.33282535731541        0.43178902967397       -0.19155376108882
C            5.70281750718854        0.70185519416128       -0.33390726129793
C            6.63938426587370       -0.12400389333649        0.23532663743517
C            6.23539232954324       -1.24411728606107        0.96611546667085
C            4.90083533263782       -1.52472280717129        1.11686814699626
C            3.92666065365175       -0.69022858779998        0.54522749199854
C            2.52853315797714       -1.03589370413707        0.74922090689105
O            2.16796290670797       -2.02699034533756        1.39752708351543
C            1.58091515475331       -0.12548259464966        0.12139154805161
C            0.21485391730755       -0.39502169298490        0.26410450899459
C           -0.72885664608786        0.43326697248982       -0.30803208103721
N           -2.08918150266867        0.14919377129540       -0.15386359054212
C           -3.04907373424201        1.03885767536903        0.28114014608192
C           -2.90920974444922        2.36000707388992        0.68533566472538
C           -4.04725408329171        3.03191992426959        1.09230016428430
C           -5.29148722491704        2.40771118736032        1.10985392296075
C           -5.43187694240767        1.08319370825961        0.73219419227356
C           -4.30564693617433        0.38938128996197        0.31977978864266
C           -4.07717808187589       -0.96474500953916       -0.11314638833586
C           -4.90610028395738       -2.06033414011823       -0.29561744558241
C           -4.34888914328301       -3.24146069662083       -0.75429685580954
C           -2.98960046040444       -3.33031018169960       -1.04171370304251
C           -2.14330182480429       -2.25060319013434       -0.86829987962988
C           -2.69353183280894       -1.06999862823732       -0.38787669807661
C           -0.31898436962971        1.56919514459721       -1.03385555916863
C            1.01309809737980        1.84539674777482       -1.16927441880452
C            1.99024663756911        0.99713842493289       -0.61854486742525
H            5.98516810605285        1.57302802716079       -0.90635506496903
H            7.69070211243953        0.09254878827804        0.11708740227297
H            6.97478411766501       -1.89043817391481        1.41535711147856
H            4.55925806116469       -2.38250940118998        1.67718604399087
H           -0.07926868938910       -1.25179407107996        0.85213890634794
H           -1.94459832319134        2.84359582619220        0.69667705849576
H           -3.96738069265613        4.06085886996702        1.40882043601767
H           -6.15709837861515        2.96543461851348        1.43376639556735
H           -6.39538901186852        0.59797244913755        0.76108773878473
H           -5.96268341210254       -1.98969974842665       -0.08741114395033
H           -4.97694234100846       -4.10731040995245       -0.89962906290745
H           -2.58661461952957       -4.26168072880774       -1.40938305089673
H           -1.09322371641310       -2.32481927529150       -1.10446978295459
H           -1.06338763783807        2.19527768158946       -1.50172804793850
H            1.36131372646742        2.70261584493665       -1.72684102293285
