  105
       -160.96872084
 C          2.3764277034       -9.2533868644       -2.0652852983
 C          1.9386385821       -8.0489781294       -2.5931522849
 C          1.0099570369       -7.2838446345       -1.9161805905
 C          0.5052027764       -7.7152560015       -0.6880481553
 N         -0.4290275730       -6.9416651818        0.0039927766
 C         -1.4498062977       -7.5579979335        0.7311787357
 C         -1.8903334397       -7.0091679842        1.9370011339
 C         -2.9046550323       -7.6184776565        2.6483484277
 C         -3.4927765444       -8.7819069234        2.1778286661
 C         -3.0587602408       -9.3316686961        0.9819480514
 C         -2.0491165767       -8.7275654334        0.2595106971
 C         -0.3402395047       -5.5459986483       -0.0260509179
 C          0.9078477088       -4.9120569446       -0.0081580203
 C          0.9921492672       -3.5412866310       -0.0310772666
 C         -0.1660512589       -2.7530895923       -0.0656209386
 C         -0.0773973711       -1.3107455131       -0.0708649606
 N          1.1308867910       -0.7429970936       -0.0679372665
 C          1.1843777897        0.5987673779       -0.0595846970
 C          2.4725727588        1.2413678520       -0.0534933007
 C          2.5769689442        2.6410615319       -0.0397133936
 C          3.8052224345        3.2533380582       -0.0240874726
 C          4.9791615610        2.4892636927       -0.0266933481
 N          6.2327387691        3.1118154292       -0.0053671686
 C          6.4407230487        4.2828470560       -0.7348505579
 C          7.2706947774        5.2906479777       -0.2384680305
 C          7.4696569920        6.4479583101       -0.9642117312
 C          6.8445238863        6.6261293444       -2.1883882545
 C          6.0153983091        5.6317667245       -2.6833674208
 C          5.8131515002        4.4681818817       -1.9686395626
 C          7.2670050169        2.5582380710        0.7508619458
 C          8.5860749445        2.6089222448        0.2947509818
 C          9.6033160136        2.0554639266        1.0462191801
 C          9.3275477892        1.4390122087        2.2566121319
 C          8.0196468802        1.3813507630        2.7118070957
 C          6.9951544483        1.9357062406        1.9709995468
 C          4.8812781315        1.0922367011       -0.0473352067
 C          3.6524692126        0.4810316844       -0.0578235407
 N          0.0848430098        1.3551757827       -0.0525113496
 C         -1.0993332472        0.7369913340       -0.0585141337
 C         -2.3002695342        1.5291477022       -0.0448798645
 C         -2.2359190913        2.9311058418       -0.0045223209
 C         -3.3820785335        3.6857248468        0.0123467815
 C         -4.6388014390        3.0677639723       -0.0086565820
 N         -5.8090793617        3.8376162808        0.0099383501
 C         -5.8772443307        4.9728829900        0.8172279134
 C         -5.2283626962        4.9993553512        2.0538479488
 C         -5.2896814097        6.1272780613        2.8472233083
 C         -5.9973906466        7.2434398652        2.4294263447
 C         -6.6423675949        7.2235759350        1.2027163746
 C         -6.5833783338        6.1030797699        0.3985580669
 C         -6.8954276139        3.4592297646       -0.7793637387
 C         -8.2038821039        3.6444367022       -0.3272431300
 C         -9.2717977069        3.2611676793       -1.1137772422
 C         -9.0590069147        2.6834164909       -2.3555591290
 C         -7.7625225702        2.4919674908       -2.8069615250
 C         -6.6872700159        2.8759824580       -2.0313116053
 C         -4.7098851859        1.6696936527       -0.0489004165
 C         -3.5631697292        0.9159649034       -0.0675525674
 N         -1.2070601981       -0.6015805754       -0.0711478365
 C         -1.4132807089       -3.3919703679       -0.0863031163
 C         -1.4997171273       -4.7624580768       -0.0705614595
 C          0.9532281587       -8.9271446804       -0.1587215401
 C          1.8782307205       -9.6868141403       -0.8468162402
 H          3.1007991248       -9.8494179176       -2.5988647240
 H          2.3175874257       -7.7064990983       -3.5446264090
 H          0.6612833006       -6.3511756600       -2.3339518205
 H         -1.4255757520       -6.1089853150        2.3106685701
 H         -3.2332868638       -7.1860344070        3.5817247591
 H         -4.2838547679       -9.2561440584        2.7381441315
 H         -3.5166055177      -10.2338173248        0.6039683698
 H         -1.7220634152       -9.1501702460       -0.6790876010
 H          1.8043568964       -5.5135224603        0.0375770577
 H          1.9506893117       -3.0471430807       -0.0078469838
 H          1.6697191293        3.2243410723       -0.0283722632
 H          3.8785057472        4.3311238977        0.0042771591
 H          7.7468399443        5.1609730031        0.7222544392
 H          8.1105286168        7.2211625120       -0.5669092340
 H          7.0014264885        7.5333595763       -2.7513631896
 H          5.5279555761        5.7604455490       -3.6383826946
 H          5.1754292596        3.6897797404       -2.3601799661
 H          8.8013180433        3.0753612969       -0.6553208476
 H         10.6183883822        2.0976193000        0.6799137458
 H         10.1256063025        1.0060853284        2.8399685037
 H          7.7964178773        0.9072252737        3.6560643964
 H          5.9782084850        1.8998237511        2.3321997766
 H          5.7858819640        0.5013189322       -0.0656630585
 H          3.5708389787       -0.5942371628       -0.0813664419
 H         -1.2653541742        3.4015846836        0.0027242946
 H         -3.3269908510        4.7648700936        0.0298698954
 H         -4.6858999390        4.1266979255        2.3856508382
 H         -4.7874819123        6.1325223896        3.8032454492
 H         -6.0446862436        8.1222520366        3.0539857026
 H         -7.1885475445        8.0920023966        0.8652288916
 H         -7.0736695339        6.0962548795       -0.5637383033
 H         -8.3727200003        4.0795208544        0.6467496371
 H        -10.2785042273        3.4063783561       -0.7506792791
 H         -9.8970900807        2.3836245511       -2.9657909617
 H         -7.5874959593        2.0461992280       -3.7748602707
 H         -5.6779203718        2.7353551993       -2.3880463196
 H         -5.6791138728        1.1917356011       -0.0518432306
 H         -3.6108303594       -0.1614071934       -0.0877679976
 H         -2.3030690492       -2.7835078565       -0.1250141537
 H         -2.4638261592       -5.2494158888       -0.1020040051
 H          0.5770037151       -9.2602623827        0.7973284030
 H          2.2192044455      -10.6204593887       -0.4243992206
