113
 energy: -178.215758348996 gnorm: 0.000036630195 xtb: 6.7.1 (edcfbbe)
N           12.06616209196171       -4.53438728397011        0.12020263864409
C           11.00021352216470       -4.10836784488052        0.09998850054512
C            9.69015609549586       -3.58346724576213        0.07676009157142
C            8.65839000080278       -4.24286676933400        0.75174953664487
C            7.38535528986039       -3.71923629747675        0.73078494520716
C            7.10988285420606       -2.53052289785892        0.04523152709981
C            5.73941262864436       -2.05222347926012        0.05713400249696
N            4.71422564434548       -2.86626559700250        0.13096421127645
C            3.60516491447582       -2.08612262300581        0.09047716093078
C            2.24474518975193       -2.50274823608644        0.10627059623534
C            1.89060625900112       -3.85541784651232        0.16257322067924
C            0.57270565666507       -4.23326374731114        0.15195636299497
C           -0.43550742368221       -3.26109064598968        0.08529265254720
C           -1.85362508904950       -3.64390691002165        0.07552859166455
C           -2.79391356446353       -2.91273025608571        0.80159458748364
C           -4.12920059137042       -3.25397250058082        0.78577757087815
C           -4.57549379882081       -4.33461614626672        0.02326881581162
N           -5.93305554325097       -4.66428409955642       -0.01698078950935
C           -6.32827193877357       -6.00670227559591       -0.08134978086966
C           -5.63281518998071       -6.98394431044971        0.63093481340837
C           -6.02526779671294       -8.30694818056862        0.56306007032005
C           -7.11786641081655       -8.67690218804134       -0.20472850191553
C           -7.81468051281129       -7.70962409984025       -0.91113980282936
C           -7.42393643555578       -6.38543781158921       -0.85715247463401
C           -6.90011207126578       -3.65119217800348        0.00882630798812
C           -8.09623224782770       -3.83158557857533        0.70368236708244
C           -9.04797966116032       -2.83009803500204        0.72441503148601
C           -8.82212985359237       -1.63220388056368        0.06559091354829
C           -7.63415884311288       -1.44578441388711       -0.62296518413463
C           -6.68161678505885       -2.44592924057901       -0.65926484794415
C           -3.63834220091605       -5.07433101203124       -0.69992138312801
C           -2.30141764414413       -4.73740056408203       -0.66452799035286
C           -0.08191837715756       -1.92345320435849        0.02910724210576
C            1.25170429374349       -1.49933404553256        0.04387325377559
C            1.62865207410105       -0.09452479200175        0.02200760906996
C            0.66371361705304        0.91708282623351        0.02027186636270
C            0.98439103280678        2.26351834266806        0.05142613514080
C           -0.07854605577386        3.27531966237027        0.03841037975919
C           -0.00276328587889        4.41497209470941        0.83832379516860
C           -1.01863507381336        5.34748515662883        0.84692171495549
C           -2.14350143231797        5.17840994660272        0.03758197998692
N           -3.17877320502134        6.11588607136542        0.04602023024956
C           -4.50780376197677        5.69075603069568       -0.08390921164296
C           -5.42228954185459        6.44132973644166       -0.82274624172359
C           -6.73284587927506        6.01997781778257       -0.94284265204394
C           -7.15111720565682        4.84445634599273       -0.34010326817904
C           -6.24553302602644        4.09225326571899        0.39082732311299
C           -4.93555980396526        4.51064884446065        0.52485568111860
C           -2.89174297353696        7.48005967598591        0.18363311789972
C           -1.76707055793536        8.03144150603965       -0.43047013920167
C           -1.48673068051094        9.37714528119578       -0.29120705911683
C           -2.32296289444964       10.19533200400634        0.45130739782495
C           -3.44396084838808        9.65370597387836        1.05973673028772
C           -3.72756902051686        8.30725254124849        0.93389414508629
C           -2.21517971390802        4.04893560387198       -0.78000264880122
C           -1.20342919138225        3.11337545616763       -0.77088513282363
C            2.33454404424221        2.62830317560879        0.11266472270518
C            3.31149487870468        1.66600308617197        0.10084764124928
C            2.99480871769848        0.30102579848142        0.03190998650379
C            3.96477035867910       -0.74001634594962        0.00563222271645
N            5.34254075240881       -0.73163862866753       -0.02740184296168
C            6.20459227492333        0.37790789266796       -0.11137381166457
C            7.05946981222201        0.66905393368064        0.94905528170314
C            7.92417197025964        1.74158473961917        0.86205068733291
C            7.93873054464187        2.52927084867994       -0.29074098150435
C            8.82147611148847        3.62982195313177       -0.38206807350959
N            9.53602346135348        4.52411652559749       -0.45801002493044
C            7.08211385804637        2.23592039306336       -1.35526351459467
C            6.22026866574352        1.16264598640399       -1.26480572058180
C            8.14107800242354       -1.89393051031366       -0.64932461974309
C            9.41985121846071       -2.41040229199839       -0.63093900717865
H            8.86820695495639       -5.15743126862193        1.28611365782636
H            6.57618160440199       -4.21683989445284        1.24171606091316
H            2.68456603183930       -4.58507603344025        0.21255038698216
H            0.30457614125106       -5.27764360000944        0.21204159553293
H           -2.46857452051184       -2.08317140211146        1.41248544398335
H           -4.83978038633613       -2.68483576510243        1.36744135583264
H           -4.78697359694887       -6.69703496708701        1.23881083566824
H           -5.47894416522156       -9.05311277665241        1.12174678173481
H           -7.42409504731615       -9.71119984994440       -0.25208143482250
H           -8.66480326572396       -7.98895665789602       -1.51662503770011
H           -7.96358582583782       -5.63486761652732       -1.41640370584949
H           -8.27153274701228       -4.76012566651477        1.22742409383886
H           -9.96928159927606       -2.98361914045311        1.26753864337891
H           -9.56633165512669       -0.85023387389945        0.08852861324752
H           -7.45067100129384       -0.51748676009575       -1.14467661678378
H           -5.76158747152811       -2.30135043077301       -1.20682518658373
H           -3.96935084798336       -5.91075889345947       -1.29821104065907
H           -1.59653471501948       -5.31021559318915       -1.24929695203342
H           -0.87917748968940       -1.20221227929868       -0.04764262192835
H           -0.38146936839749        0.65571837884517        0.02251113954207
H            0.84732056785711        4.55457419566139        1.49014313568169
H           -0.95292290226532        6.21289111389321        1.49023617295389
H           -5.09709769453301        7.35360711086559       -1.30160106745021
H           -7.43024529105753        6.61029385832316       -1.51943510769280
H           -8.17521373541250        4.51715051974109       -0.43961870413790
H           -6.56304904523341        3.17670357965293        0.86881115482954
H           -4.23465809970942        3.92791236365920        1.10487981826417
H           -1.11932342646123        7.39812976136792       -1.01925306615031
H           -0.61337256390193        9.79139546241505       -0.77391697389090
H           -2.10277957825775       11.24726578174479        0.55453571483834
H           -4.09888822150535       10.28265359198854        1.64522720972644
H           -4.59758822782815        7.88625552774704        1.41675605435990
H           -3.07108482753391        3.91421231225488       -1.42523953328489
H           -1.27071808363717        2.25651092731723       -1.42537773827481
H            2.60859848247297        3.67208307101334        0.15048494614342
H            4.34448258890820        1.96902934821744        0.15859801188602
H            7.03881648249741        0.05318383955894        1.83545876281774
H            8.58714650959136        1.97646693701524        1.68074299378158
H            7.10110569384796        2.84813577224026       -2.24413975945431
H            5.55209187704200        0.92537759895311       -2.07932831727651
H            7.94508153932510       -1.00563771818770       -1.22852531739606
H           10.21500699131799       -1.91554477628597       -1.16887234342897
