113
 energy: -178.215114441803 gnorm: 0.000097103123 xtb: 6.7.1 (edcfbbe)
N           11.81567708059466       -6.30916918786791       -0.38193729853538
C           10.81464219527259       -5.74973260871967       -0.32692916341876
C            9.58457137185188       -5.06011290617166       -0.26134199387554
C            9.45930191581636       -3.93119188720433        0.55112874475718
C            8.26091615221674       -3.25054921611783        0.60630141511485
C            7.16916645419746       -3.67764126280688       -0.15255921840953
C            5.87880867243752       -3.01127089337798       -0.13238557078856
N            4.74675195624704       -3.66401447469598       -0.22666933159840
C            3.76386318264950       -2.73086073598475       -0.14950576911239
C            2.35756388038754       -2.94389291215305       -0.16030217537458
C            1.81381320531593       -4.23056955160984       -0.24097268097312
C            0.45629026583432       -4.41627305690737       -0.21475737546782
C           -0.40153229745103       -3.31300533901420       -0.09693995339844
C           -1.85767953681652       -3.50665915810114       -0.05214304430314
C           -2.65465438332360       -2.76912423457002        0.82264919487355
C           -4.02068060291727       -2.95268154313172        0.86880392331951
C           -4.63845091683504       -3.88546997583003        0.03465774489988
N           -6.02308432332771       -4.07624174650614        0.08013504999137
C           -6.69762562985856       -4.02338351571564        1.30633004617104
C           -7.96947077410798       -3.45646131158099        1.39088658119520
C           -8.63394405033322       -3.41335273989452        2.60151779941105
C           -8.04265598868928       -3.92383211149347        3.74603517924099
C           -6.77742141956172       -4.48359318174752        3.66875342830915
C           -6.10862114929308       -4.53928828150767        2.46106386577717
C           -6.73333112955235       -4.33175879544509       -1.09966850764462
C           -7.79838322340179       -5.23262699795343       -1.10523001917843
C           -8.49787705623692       -5.47698219997074       -2.27144393347605
C           -8.14495105398416       -4.83826852807473       -3.44943090272911
C           -7.08490533151445       -3.94590472583247       -3.45064010378808
C           -6.38562174107294       -3.68765385252409       -2.28738933964062
C           -3.84619482373352       -4.62495162556255       -0.84468189236795
C           -2.48081030483691       -4.43635249240727       -0.88386448179817
C            0.13907478834058       -2.04027546387377       -0.02351153853236
C            1.51976742171530       -1.80998790433223       -0.06060034682357
C            2.09796988912197       -0.47516418616395       -0.02478063592018
C            1.29221674093886        0.66808188522094       -0.02185623786674
C            1.80883954055516        1.95254868561425       -0.02909371009165
C            0.91778517067887        3.11875718648490       -0.03356420562948
C            1.22063757170370        4.25614975772124        0.71475068162385
C            0.38163496382727        5.35012794003332        0.72028002595475
C           -0.78790816305361        5.35086427010056       -0.04221892541418
N           -1.63795392141036        6.45870385215022       -0.04455703163445
C           -1.10714668757566        7.75359301794079        0.02548093966418
C            0.07310981045145        8.07310707916177       -0.64592951966312
C            0.59002025924357        9.35255896355927       -0.57519175802620
C           -0.06139761935786       10.33386785407511        0.15469776187318
C           -1.23573884839837       10.02254627442384        0.82117422816524
C           -1.75534738873669        8.74356047403786        0.76401907202722
C           -3.02542581885561        6.27919931028486       -0.12546998413664
C           -3.64243445489170        5.22085117637884        0.54170574216292
C           -5.01024701879984        5.04546035402888        0.45524745108630
C           -5.78522484706201        5.92307050444555       -0.28586433987155
C           -5.17825852572909        6.97976380944355       -0.94543506230310
C           -3.80990889052678        7.15759159832758       -0.87290009011886
C           -1.08975167738526        4.21956544562523       -0.80275088055586
C           -0.25435057652080        3.12333208404285       -0.78988789624902
C            3.19957341695244        2.11452045042494       -0.05266060884352
C            4.02361718922757        1.01904616647707       -0.05211058654255
C            3.50777875111391       -0.28502847959339       -0.01895267820481
C            4.31638770938306       -1.45601257695291       -0.02149286347213
N            5.68090218630581       -1.65059053540408        0.00268001958169
C            6.70415644533203       -0.69303650760628        0.12664399707987
C            6.81683100443328        0.06204761214508        1.29428778997140
C            7.84160293584132        0.97586809479533        1.42686408675391
C            8.76558426425185        1.13777382379426        0.39107583182595
C            9.81732730972025        2.07246135677620        0.52797421770411
N           10.66869399881834        2.83301656972090        0.64147198985539
C            8.65341475860754        0.37996463880941       -0.77631969207438
C            7.62527894374032       -0.53182240256026       -0.90586315986951
C            7.29492812194321       -4.82653626981404       -0.94057214043006
C            8.48759437566291       -5.51221487905533       -1.00065222300517
H           10.30239365713447       -3.59969534003241        1.13914679605746
H            8.17139798652627       -2.39922973458152        1.26263987120895
H            2.49524449722212       -5.06459309012679       -0.31262550267695
H            0.04219698954102       -5.41263562991312       -0.25732547359534
H           -2.19548502831125       -2.05270839251918        1.48832384853077
H           -4.62195817031000       -2.37248478279565        1.55371477830081
H           -8.42995324506469       -3.04986390169243        0.50207852578763
H           -9.61807705302197       -2.97029002630776        2.65252143182271
H           -8.56394400029186       -3.88589106271962        4.69078378484155
H           -6.31028667522572       -4.88964434513931        4.55439618306041
H           -5.12639404212388       -4.98558385590524        2.40265835627551
H           -8.07038612650390       -5.73971368075672       -0.19080325056198
H           -9.31930437908299       -6.17874778801073       -2.26152220133806
H           -8.69148877791450       -5.03503054054835       -4.35958695194181
H           -6.80521218629288       -3.43897295212222       -4.36291902180792
H           -5.56589540857302       -2.98390111405253       -2.28974417421972
H           -4.31096064108813       -5.35109533629550       -1.49580961702028
H           -1.88784081061152       -5.01110350893723       -1.58017303443379
H           -0.54678833161727       -1.21176091015001        0.04944494744453
H            0.22008299792158        0.56241728410383       -0.00589072012528
H            2.10994551398996        4.27068083409805        1.32786945547445
H            0.62347244633683        6.21397041600890        1.32224905205375
H            0.57732405463334        7.31323762212088       -1.22531583788867
H            1.50332767096268        9.58721538092885       -1.10267576938070
H            0.34291197344812       11.33377720268424        0.20382353144380
H           -1.74799263633927       10.77949015610371        1.39724228508067
H           -2.66661658914455        8.50162332937450        1.29156876823340
H           -3.04237224577989        4.54099019448120        1.12906178055532
H           -5.47512989194994        4.22217428437972        0.97815023233617
H           -6.85425474905713        5.78518196775600       -0.34821580553171
H           -5.77351723442400        7.66665595531479       -1.52951728023153
H           -3.33868294283685        7.97696148100615       -1.39617314073738
H           -1.98327663834579        4.21084396459520       -1.40982941944673
H           -0.49750573169377        2.26829607817170       -1.40374209600256
H            3.62416952050763        3.10620673228640       -0.09964002026679
H            5.09042888240551        1.16694789538621       -0.10084345522117
H            6.09723021500420       -0.07367492638996        2.08806241975556
H            7.93649446222706        1.56341792148421        2.32743601111408
H            9.36928129027483        0.51232932834464       -1.57320374033249
H            7.52870973069113       -1.12287552301310       -1.80403304046539
H            6.43719804285629       -5.16286977031478       -1.50150578604891
H            8.58441287832951       -6.39451279642927       -1.61566465726529
