  113
       -178.13759350
 N         12.0615261830       -4.5082076116        0.3164786841
 C         10.9940772911       -4.0914086145        0.2627860937
 C          9.6814750131       -3.5747926520        0.1993197008
 C          8.6417823047       -4.2147191308        0.8793043573
 C          7.3677710183       -3.6967319672        0.8212608010
 C          7.1015100980       -2.5321556937        0.0932260935
 C          5.7320718892       -2.0538973896        0.0732101797
 N          4.7039816188       -2.8610848963        0.1469129320
 C          3.5987291319       -2.0789983948        0.0725074709
 C          2.2373471321       -2.4900073578        0.0726139486
 C          1.8782935989       -3.8399858157        0.1467088096
 C          0.5594588569       -4.2123019888        0.1230966101
 C         -0.4437766220       -3.2382952848        0.0188945729
 C         -1.8617165419       -3.6171303211        0.0033946136
 C         -2.8090423072       -2.8479880078        0.6792300550
 C         -4.1431929454       -3.1912709002        0.6714269387
 C         -4.5803425467       -4.3173417779       -0.0273981154
 N         -5.9347965264       -4.6577472921       -0.0466776631
 C         -6.3222128467       -6.0017385714       -0.0039979847
 C         -5.6021579152       -6.9216268900        0.7577950123
 C         -5.9894455784       -8.2467635218        0.7977938561
 C         -7.1004931826       -8.6753124998        0.0902253041
 C         -7.8208597554       -7.7651867321       -0.6657570052
 C         -7.4362242407       -6.4397421459       -0.7196056840
 C         -6.9038755957       -3.6484638623       -0.0835920237
 C         -8.0948751426       -3.7804177857        0.6299472345
 C         -9.0456426180       -2.7792166824        0.5881899189
 C         -8.8243950188       -1.6303798536       -0.1536667287
 C         -7.6418564408       -1.4926366751       -0.8619968867
 C         -6.6893766439       -2.4924917485       -0.8344451860
 C         -3.6377448652       -5.0922586470       -0.7044965315
 C         -2.3026041210       -4.7485537102       -0.6816093983
 C         -0.0843034928       -1.9034498850       -0.0593971307
 C          1.2499978189       -1.4842616518       -0.0234218381
 C          1.6320314384       -0.0816517872       -0.0506868041
 C          0.6710875073        0.9329480294       -0.0569913461
 C          0.9968082241        2.2776476701       -0.0195642981
 C         -0.0636658598        3.2904251665       -0.0184447905
 C          0.0184020135        4.4210425361        0.7930091595
 C         -1.0007648688        5.3485139825        0.8269523873
 C         -2.1359937685        5.1840258677        0.0311841395
 N         -3.1781940737        6.1097812569        0.0702307441
 C         -4.5026890738        5.6767706196       -0.0755773508
 C         -5.4228401639        6.4443769569       -0.7887071409
 C         -6.7279902406        6.0136627827       -0.9284881257
 C         -7.1346810116        4.8125225421       -0.3708628437
 C         -6.2241970521        4.0451695864        0.3371987719
 C         -4.9196011254        4.4723428965        0.4908867940
 C         -2.9084886780        7.4707758929        0.2600360967
 C         -1.7875820905        8.0587020619       -0.3255132042
 C         -1.5254795966        9.4012226088       -0.1328551763
 C         -2.3764159096       10.1795221078        0.6348676162
 C         -3.4944004364        9.6016228738        1.2140218229
 C         -3.7601496186        8.2580078871        1.0346551026
 C         -2.2108613146        4.0667704408       -0.8029443805
 C         -1.1962666154        3.1352597464       -0.8175358503
 C          2.3475861899        2.6381450666        0.0449951235
 C          3.3210962320        1.6728231262        0.0369099980
 C          2.9992473760        0.3090897826       -0.0300055175
 C          3.9638763174       -0.7361788363       -0.0336775780
 N          5.3416384843       -0.7330087521       -0.0437770030
 C          6.2087316486        0.3662436072       -0.1506009416
 C          7.0847552500        0.6594498769        0.8921674150
 C          7.9616070697        1.7187464437        0.7775177430
 C          7.9669899985        2.4925706275       -0.3841455046
 C          8.8637516162        3.5790285726       -0.5049292865
 N          9.5906120641        4.4598176566       -0.6049602887
 C          7.0883342724        2.1989403166       -1.4295881070
 C          6.2147152838        1.1385417993       -1.3125768637
 C          8.1401914053       -1.9171662308       -0.6086970542
 C          9.4193756887       -2.4291925863       -0.5536968661
 H          8.8468955236       -5.1110670147        1.4455010290
 H          6.5504140508       -4.1784737095        1.3344482315
 H          2.6692311817       -4.5699621405        0.2227532629
 H          0.2852793549       -5.2536735160        0.2027427891
 H         -2.4898193857       -1.9864666729        1.2473900283
 H         -4.8600946372       -2.5925052371        1.2140216297
 H         -4.7427285869       -6.5876802040        1.3205376805
 H         -5.4244755099       -8.9476585654        1.3943329360
 H         -7.4028056806       -9.7105681878        0.1279148151
 H         -8.6851291632       -8.0909623120       -1.2254307260
 H         -7.9939612853       -5.7340567447       -1.3176128959
 H         -8.2654905752       -4.6699270528        1.2185280069
 H         -9.9622309570       -2.8934149190        1.1478170659
 H         -9.5676171475       -0.8481093487       -0.1791411559
 H         -7.4616734629       -0.6026046515       -1.4472546567
 H         -5.7723620431       -2.3872362215       -1.3957070310
 H         -3.9640909954       -5.9623024053       -1.2552991384
 H         -1.5929483857       -5.3491638811       -1.2314438545
 H         -0.8761411143       -1.1806534204       -0.1708244300
 H         -0.3752552474        0.6758806417       -0.0570357362
 H          0.8760390486        4.5551374406        1.4358887321
 H         -0.9312505456        6.2043762925        1.4821688478
 H         -5.1053600738        7.3764659220       -1.2328893044
 H         -7.4298770054        6.6168855625       -1.4850831195
 H         -8.1540598270        4.4773627274       -0.4861677623
 H         -6.5333751961        3.1103887699        0.7816293306
 H         -4.2142887243        3.8780721539        1.0534434103
 H         -1.1290274015        7.4562842034       -0.9343063527
 H         -0.6545954529        9.8442104115       -0.5932769943
 H         -2.1704493129       11.2289710730        0.7796562325
 H         -4.1619118203       10.1996782608        1.8169375287
 H         -4.6280811968        7.8075273561        1.4939865556
 H         -3.0729910182        3.9378744651       -1.4406768988
 H         -1.2674874049        2.2866310897       -1.4822335728
 H          2.6245411289        3.6811304488        0.0856288522
 H          4.3551404807        1.9730435065        0.1023270833
 H          7.0706479406        0.0529729884        1.7856122591
 H          8.6418727559        1.9550970697        1.5818250200
 H          7.1004182391        2.8015693568       -2.3254145733
 H          5.5303524969        0.8987042076       -2.1131777564
 H          7.9490858165       -1.0502063277       -1.2224962629
 H         10.2213449716       -1.9523350713       -1.0978815862
