113
 energy: -178.148254413045 gnorm: 0.000165605599 xtb: 6.7.1 (edcfbbe)
N           11.95174754536466       -4.78419103585111        0.05238944015490
C           10.89884791953164       -4.31004744489726        0.05010816825235
C            9.62559434160488       -3.73575722906222        0.04854886331888
C            8.52783886938220       -4.41808604397411        0.61260834079995
C            7.28948994930734       -3.84111277359658        0.61998992878069
C            7.07401740561431       -2.54597093420337        0.08881162027224
C            5.74932945967118       -2.02871627832860        0.13694579307536
N            4.69105120119657       -2.83003655331984        0.25705352948219
C            3.60790263168595       -2.05500892365137        0.15333693818513
C            2.24938486096660       -2.46518551061070        0.16187269967965
C            1.89849676713810       -3.81935601780525        0.23873018916218
C            0.58271134728830       -4.20638080145452        0.20837848721816
C           -0.42787584807474       -3.24049260302066        0.10933116410296
C           -1.83771209147267       -3.62713349459263        0.07912774070635
C           -2.80845557126753       -2.85880166783108        0.72995634826775
C           -4.13725009750642       -3.21445001905071        0.70155308874594
C           -4.55449405370644       -4.35209865966757        0.00138015183478
N           -5.89853457761461       -4.70179146611210       -0.04842163471079
C           -6.27688455881991       -6.05054673654826       -0.10748792169217
C           -5.59445753977751       -7.00937504633633        0.64226466091633
C           -5.97538101038280       -8.33603804519234        0.58243356225206
C           -7.03957109220168       -8.72492876673151       -0.21620105054956
C           -7.72272237398485       -7.77496963303538       -0.95951470586128
C           -7.34662982522891       -6.44647652809956       -0.91100797350770
C           -6.88989860004865       -3.71126956544694       -0.03927123762552
C           -8.08173112650189       -3.91561914765664        0.65730787651329
C           -9.06010286242673       -2.94013961825616        0.65982816703774
C           -8.86530376789044       -1.74894222477748       -0.02179764094897
C           -7.68285916225145       -1.54118031496451       -0.71472288312202
C           -6.70157783656810       -2.51353500334655       -0.73074544149705
C           -3.58783675595533       -5.12689478862998       -0.65006331367092
C           -2.25853575951051       -4.77315802192439       -0.60225041620263
C           -0.07497561925640       -1.89493073910113        0.03998472294934
C            1.25162992720169       -1.46615795812762        0.06564006914163
C            1.62918485552945       -0.05809863759767        0.02820643208808
C            0.67086436347488        0.94360458086465        0.01666753759221
C            0.97967164598006        2.30640318512752        0.05685121686070
C           -0.07398224858298        3.30362934132933        0.03931593640381
C            0.06396518787779        4.52779097075575        0.71190491302929
C           -0.94438349073543        5.46088944275779        0.71649000377992
C           -2.14399565149494        5.22072634967246        0.03259793094454
N           -3.16919782266389        6.15610774364715        0.04117818604529
C           -4.50672927065689        5.74048321430408       -0.00747833475024
C           -5.44237094009062        6.46637254064724       -0.74617359147167
C           -6.76098692334846        6.05649993277822       -0.78870515064713
C           -7.16541784302449        4.92043809448258       -0.10476362056545
C           -6.23966197825085        4.19661091326382        0.63071689580105
C           -4.91998837076988        4.60146446915749        0.68573624838915
C           -2.87884520107547        7.52578911067872        0.10184626711611
C           -1.79964121158139        8.05236582945601       -0.60965484674599
C           -1.52143539524169        9.40408303438732       -0.54628845070491
C           -2.31215035986789       10.24808243763777        0.21810064441969
C           -3.38815104347456        9.72992759298864        0.92224859342990
C           -3.67220780697611        8.37906071866518        0.87009277352252
C           -2.28442778355679        4.00972303518149       -0.65885345497195
C           -1.27694965639245        3.07672560277304       -0.64862606039977
C            2.33894103028520        2.66649389190394        0.14224938334725
C            3.31461416519150        1.71368616814624        0.12144752716266
C            3.01230860817189        0.33192427304241        0.03503341750346
C            3.97301593585520       -0.68832569265157        0.00931785902312
N            5.35671338287465       -0.69128307137139       -0.00895046381310
C            6.21540395431423        0.40402148233546       -0.10150124888377
C            7.19540015361614        0.61421888321432        0.87945390000477
C            8.04751460875204        1.68718650219436        0.78946659982747
C            7.95148886800324        2.57706000753893       -0.29393593997373
C            8.81850406508654        3.67391448308341       -0.38978026430095
N            9.52495293433155        4.58163803922420       -0.46830907074447
C            6.97707222258407        2.35927691390624       -1.28329739183601
C            6.12048449005142        1.29055055329545       -1.18452286997832
C            8.17256758991195       -1.89204490814239       -0.51285132670649
C            9.41300992205663       -2.47152388184838       -0.53241060018706
H            8.68262679557731       -5.39870218208157        1.03982835383651
H            6.44328077958042       -4.35532122953480        1.04807437098963
H            2.69727263924617       -4.54085726607648        0.31806759619085
H            0.32314868315577       -5.25136214162382        0.28542615273742
H           -2.50757852916649       -1.99293650413998        1.30030454198785
H           -4.86576020192307       -2.62323457560815        1.23610487578316
H           -4.77477336003673       -6.70511898542729        1.27636889241290
H           -5.44326052238392       -9.06951028450355        1.16996381911998
H           -7.33511199978347       -9.76227349410925       -0.25842800049215
H           -8.54933754132989       -8.07164906164899       -1.58792170775183
H           -7.87211833871303       -5.70860675559551       -1.49916357028936
H           -8.22977765359271       -4.83778110008645        1.19959692611204
H           -9.97712168241127       -3.10826922753242        1.20490052398632
H           -9.63131972579208       -0.98843416056452       -0.01436522518363
H           -7.52700550682655       -0.61932197669998       -1.25534831633036
H           -5.78837595877690       -2.35754357712543       -1.28580407444369
H           -3.89416422986034       -5.99795331444536       -1.20997817368588
H           -1.53402467748454       -5.37016584720015       -1.13526246101800
H           -0.87310635809192       -1.17878085362111       -0.06591722929942
H           -0.37219563394069        0.67516201057496        0.02333615464561
H            0.96152424058609        4.72521392460490        1.27787517800659
H           -0.82562552069318        6.37952092566301        1.27180725015696
H           -5.12601139528579        7.34396237308433       -1.29031183386297
H           -7.47547731932883        6.62360488115484       -1.36663700495207
H           -8.19630201360123        4.60278595791700       -0.14340477151765
H           -6.54864646398190        3.31565927013999        1.17359988147604
H           -4.20322856949803        4.04746238061583        1.27368313272739
H           -1.19224265156878        7.39825598784895       -1.21777325684259
H           -0.68688877966247        9.80244182277199       -1.10408604930297
H           -2.09189521907574       11.30380128483830        0.26307768472324
H           -4.00533169246389       10.38101519478935        1.52332170078278
H           -4.50226676970777        7.97365608258746        1.42958557932428
H           -3.18718128957667        3.82305029398922       -1.22136504237938
H           -1.39906559636678        2.16970216011025       -1.22063482005066
H            2.61875920428183        3.70794269760019        0.19265974359585
H            4.34562077451596        2.01835850200529        0.19430433634782
H            7.26769367794563       -0.07425229770782        1.70849186085345
H            8.79385281111226        1.85817666938729        1.55129359523461
H            6.91510058029943        3.03498144605157       -2.12372080091922
H            5.37581376229005        1.11385773809937       -1.94700625259341
H            8.03595201040651       -0.94166159438000       -1.00381415318092
H           10.24310865456044       -1.96301939833455       -1.00303868425915
