77
 energy: -115.679810185323 gnorm: 0.000167698618 xtb: 6.7.1 (edcfbbe)
C           -4.46475376952372       -0.96102521348269       -1.50903983340508
C           -5.66740847443804       -0.28277424230419       -0.84465729288017
C           -5.80305785986390        1.16220609829813       -1.33541058392769
C           -6.93112995436847       -1.06381633538096       -1.13015206945385
C           -7.52284789463662       -1.33614431301996       -2.34494181023194
C           -8.69188857859864       -2.08478462135904       -2.36736764461534
C           -9.25842905408828       -2.55362561578397       -1.19153142537942
C           -8.67073256545363       -2.28434935704208        0.03314153815062
C           -7.50409164377620       -1.53710555614985        0.05773272893002
C           -6.68018190661552       -1.09952740739883        1.17145904150109
C           -6.84135233792539       -1.30695994057539        2.53137987678059
C           -5.91055205661460       -0.75898319151200        3.39727555547574
C           -4.84680523907353       -0.02081740616800        2.90902873438661
C           -4.67269063085261        0.19012756495973        1.53975540465745
C           -3.51373900149391        0.99745978040329        1.10095839448375
C           -3.59992732925048        2.39173011996664        1.07454720979327
C           -2.50053041122111        3.13565641478413        0.68142254474407
C           -1.31528275177250        2.51260072152818        0.31864825555839
S            0.00134202079562        3.57721560043834       -0.15299824723630
C            1.31127740660771        2.46775302283667       -0.53075119572309
C            2.49786415738594        3.04974421318729       -0.95252134144399
C            3.59250504310929        2.26804807446967       -1.28017133573935
C            3.50030063170005        0.87758489712856       -1.17910491956795
C            4.65381336977673        0.02811696922782       -1.54730724216148
C            4.80462497315695       -0.33143171424755       -2.88806319033039
C            5.86337646212808       -1.11537298877275       -3.31159890488205
C            6.81136592840709       -1.56330106158878       -2.40767379362078
C            6.67200171202254       -1.21025385135834       -1.07563519603850
C            5.59631368170753       -0.42050884287737       -0.63719332117290
C            5.68679262582785       -0.18606375832934        0.85776100277311
C            4.49444642910612       -0.79350731820542        1.60426535035566
C            5.82500384345965        1.30202591465964        1.19460807401091
C            6.95661494525244       -0.93117909240379        1.20536876710392
C            7.56660584727521       -1.07330195192137        2.43324124256193
C            8.73831854091846       -1.81336753975397        2.51706077302194
C            9.28941565236129       -2.40223359741394        1.38881616665267
C            8.68314829540630       -2.26444691651504        0.15142459342712
C            7.51385077708580       -1.52592100677686        0.06552336002979
C            2.31107891248809        0.29753666253729       -0.77734185591418
C            1.18503979199518        1.06823287324005       -0.43135455295214
C           -0.00643972169619        0.37301021346707       -0.00839700392706
O           -0.00944218345962       -0.89663762786032        0.04958953825812
C           -1.19513652693738        1.10931248267891        0.34749359953855
C           -2.32558636612688        0.37822832670418        0.75883897435669
C           -5.59842461034363       -0.35843354571571        0.66787197831461
H           -4.34130228165194       -1.97107321881395       -1.12424869796191
H           -3.55399072167604       -0.40023620494629       -1.31679694530105
H           -4.61757261989271       -1.01731731097154       -2.58442584309982
H           -4.89744428583579        1.72350004649920       -1.11912913225067
H           -5.97270481165601        1.17647026490198       -2.40952179541004
H           -6.64406116657686        1.64923372604497       -0.84566073034175
H           -7.09143849876548       -0.97736015629830       -3.26826140106069
H           -9.16637991752077       -2.30502000748064       -3.31254130313972
H          -10.16814765568960       -3.13479726428105       -1.23317840177799
H           -9.11291924395191       -2.65027414612972        0.94782393103006
H           -7.67452047819525       -1.88144387292125        2.90696781215788
H           -6.01221311189152       -0.90500378872435        4.46264520262213
H           -4.12651982259817        0.40322602849819        3.59380558130591
H           -4.51806785680343        2.88276763315996        1.35641254402296
H           -2.55153681368592        4.21408218813023        0.65437726237221
H            2.55356615076385        4.12590272942031       -1.02406693287441
H            4.51116864463979        2.72712837290832       -1.61009407689248
H            4.07075165761255        0.01347260709204       -3.60221849725352
H            5.94743418756614       -1.37630878151093       -4.35635926401586
H            7.64037407082819       -2.17335945060400       -2.73301609264616
H            3.57885827134552       -0.26082549953173        1.36128006704204
H            4.65779678456950       -0.73237836126990        2.67782742727227
H            4.37272590443049       -1.83976188226556        1.33215621506745
H            6.65528061538251        1.73793275204081        0.64238896964801
H            4.91342458377860        1.83610065121561        0.93839215803592
H            6.01367490758419        1.42701785517700        2.25832785262382
H            7.14731519222986       -0.62025199585740        3.31998177900758
H            9.22712185944712       -1.93215657438396        3.47308480094285
H           10.20160868265041       -2.97411820924794        1.47795489779904
H            9.11331153306182       -2.72375973281381       -0.72611202389487
H            2.21430538315448       -0.77621744107953       -0.71900372264393
H           -2.23276648400552       -0.69661051647494        0.80098995637922
