77
 energy: -115.679810465815 gnorm: 0.000066420713 xtb: 6.7.1 (edcfbbe)
C           -4.48631358000422       -0.78104709229840       -1.61250009502576
C           -5.68088587438331       -0.17949129579048       -0.86474725807375
C           -5.81610529645219        1.31192155253449       -1.18788133399628
C           -6.94998170250006       -0.92005380533544       -1.22456270460868
C           -7.55557444856718       -1.04924531223185       -2.45604942552713
C           -8.72795689015591       -1.78682452863074       -2.55151965597584
C           -9.28391883642681       -2.38625106362138       -1.43126526606831
C           -8.68192313866275       -2.26175502184983       -0.19037708270330
C           -7.51209003218932       -1.52555675026905       -0.09283883719991
C           -6.67495441155251       -1.22102106023600        1.05482984955126
C           -6.82089782267499       -1.58540433500224        2.38308915754838
C           -5.87831122691069       -1.14388045802769        3.29579180832089
C           -4.81829932702425       -0.35521425850591        2.88441804546651
C           -4.66005730355035        0.01446778197867        1.54728124640575
C           -3.50482440065731        0.86700510825687        1.19204771040792
C           -3.59435765752180        2.25602427742890        1.31351741801556
C           -2.49810101807449        3.04023297883442        0.99765254055376
C           -1.31241201378671        2.46212029661460        0.56797582510276
S           -0.00046879223748        3.57442628299940        0.20609149405627
C            1.31378335333863        2.51414746812018       -0.28159096399016
C            2.49959571608068        3.14028407995239       -0.63728772694074
C            3.59745718312717        2.40010837529726       -1.04144493087806
C            3.50937879702934        1.00639284509218       -1.08568900827494
C            4.66640771244210        0.20333883421891       -1.53720446895735
C            4.83231812254460        0.00249135104474       -2.90899888390054
C            5.89412793074998       -0.73051330400700       -3.40908652560114
C            6.83117677351345       -1.28308953392761       -2.55292234777879
C            6.67793257679466       -1.08596222009006       -1.19055962910486
C            5.59800142754422       -0.35045532098756       -0.67500290794188
C            5.67440455571282       -0.28812283076497        0.83774927556933
C            4.47628746791798       -0.97584362852883        1.50070985721786
C            5.80851569619465        1.15229421967798        1.34199164767139
C            6.94145359180968       -1.06854415213455        1.10988483803831
C            7.54073434620768       -1.34914308362189        2.31906590825754
C            8.71216309813093       -2.09431143872260        2.32878872452396
C            9.27343890703718       -2.55188670155919        1.14600287978856
C            8.67787302864924       -2.27468956779883       -0.07307158459811
C            7.50897687136054       -1.53066385038503       -0.08500400129471
C            2.32093819080273        0.38430586081131       -0.74997244743770
C            1.19162478055813        1.11161711097041       -0.32894706671891
C            0.00159276958388        0.37250319191208        0.01651896661551
O            0.00212335820539       -0.89616929442366       -0.05961158441205
C           -1.18873584127782        1.06400116590321        0.44864381506880
C           -2.31654427310977        0.29054807924531        0.78247462155401
C           -5.59712851253326       -0.42764678509530        0.62840029704356
H           -4.36449418166076       -1.82906953686882       -1.34735363027604
H           -3.57166031359320       -0.24940188938339       -1.36389351750403
H           -4.64727387081979       -0.71268227746227       -2.68599270444470
H           -4.90525731218969        1.84256972173615       -0.92205210043105
H           -5.99953147280855        1.44745774874955       -2.25122132141014
H           -6.64856266567994        1.74328909937444       -0.63538595502022
H           -7.13247692268239       -0.58791126100474       -3.33669258789232
H           -9.21333667142664       -1.89551655333768       -3.51048312271426
H          -10.19654635497218       -2.95595439690696       -1.52942472032884
H           -9.11595232484587       -2.72906854622724        0.68100621579738
H           -7.65102895375313       -2.19890275058058        2.69895669918628
H           -5.96779910344888       -1.41328331729147        4.33794424722519
H           -4.08895177635785       -0.01488932467815        3.60536919060291
H           -4.51245592547384        2.71198960158190        1.64925934620459
H           -2.55166742764416        4.11538293509354        1.08438001284896
H            2.55197097991971        4.21818950996319       -0.59598279785075
H            4.51578149111870        2.89351469648896       -1.31849359017641
H            4.10737417184282        0.43067998985547       -3.58623933075469
H            5.98950571757561       -0.86853889489764       -4.47610174680118
H            7.66284307774497       -1.85360252573120       -2.93778197890333
H            4.35417326901338       -1.98263380228351        1.10707917244026
H            3.56322024225277       -0.41589677455423        1.31696469932954
H            4.63340050019245       -1.04159756275805        2.57494018198525
H            6.64458495967784        1.64699931919572        0.85151314295644
H            4.89962092569465        1.71270501454671        1.13757006548238
H            5.98543240670329        1.15635684601601        2.41501900904156
H            7.11347056418262       -0.99925163178548        3.24771809815685
H            9.19255936998979       -2.32095591131756        3.26946401868979
H           10.18514668307292       -3.13056282113441        1.17778467373419
H            9.11603807374781       -2.63164614186658       -0.99321611621968
H            2.22684126667426       -0.68982819271430       -0.80513439146194
H           -2.22154105441354       -0.78242510017297        0.70912536442085
