77
 energy: -115.764164645048 gnorm: 0.000025333324 xtb: 6.7.1 (edcfbbe)
C           -4.50752165042965       -0.77584619368795       -1.61666622873580
C           -5.69951997525568       -0.17565137640536       -0.86340900513763
C           -5.83566411331180        1.31647623022965       -1.18411100511903
C           -6.96966862672831       -0.91503495003817       -1.22316519055820
C           -7.57443672337621       -1.04445749539568       -2.45514325202528
C           -8.74650921126891       -1.78218782316361       -2.55148021426270
C           -9.30269411462025       -2.38113338077902       -1.43172280473380
C           -8.70135824186861       -2.25575028760967       -0.19021073741891
C           -7.53235783144481       -1.51936678550952       -0.09215871354309
C           -6.69463795557984       -1.21514270068197        1.05633127674471
C           -6.84204144482701       -1.57781851244477        2.38411795017271
C           -5.89740071841844       -1.14084728573945        3.29733123705151
C           -4.83364505152907       -0.35800772981703        2.88544475856616
C           -4.67409657104035        0.00939288373444        1.54861629003652
C           -3.51169496162446        0.85284697493029        1.18956821292703
C           -3.58330166676082        2.24260583535977        1.31586966682608
C           -2.49552985192792        3.02643678339866        1.00718920018280
C           -1.30420599862894        2.44650615834875        0.56884579879602
S            0.00092779500914        3.55354770112580        0.20580997380975
C            1.30719495940161        2.49845333543894       -0.28527923537283
C            2.50176497943211        3.12673513419871       -0.64023547648665
C            3.59081560286706        2.38588831922299       -1.03772232205277
C            3.51706351204788        0.99137514005236       -1.08729764155519
C            4.68176853564093        0.19792520751093       -1.54054057894616
C            4.85038019826268       -0.00134311078476       -2.91144136243916
C            5.91755154303756       -0.72713083372025       -3.40990625596471
C            6.85682324485518       -1.27323430610519       -2.55153951443376
C            6.70035948205567       -1.07762801920023       -1.19009079571879
C            5.61617686075115       -0.34787999095737       -0.67619367377978
C            5.69056375644931       -0.28538056641120        0.83693320014510
C            4.49471152844772       -0.97727405245203        1.50015015422893
C            5.82049685709655        1.15500235784946        1.34299954420018
C            6.95991237444748       -1.06198919906845        1.11082016697862
C            7.55703914926905       -1.34205021993124        2.32130216534657
C            8.73022167367910       -2.08419126912990        2.33337003440531
C            9.29493376936440       -2.53908045374016        1.15180076261425
C            8.70117662013751       -2.26203663625040       -0.06860288435310
C            7.53113496770303       -1.52092105508961       -0.08253163812453
C            2.32715233437599        0.37801134476457       -0.75244199351137
C            1.20527583373695        1.10761076248355       -0.34099071795114
C           -0.00144526746705        0.33337458778864        0.00254319614827
O           -0.00406607422101       -0.88567680929311       -0.07954353135297
C           -1.20459637988320        1.05961053416452        0.44826440613309
C           -2.32522453101127        0.28527329347272        0.77191973082685
C           -5.61424338519191       -0.42602003025889        0.62958218502066
H           -4.37624720852771       -1.82052269132620       -1.34314444310675
H           -3.59372775639219       -0.23577863202090       -1.38380025013791
H           -4.67993518646277       -0.71902525497789       -2.68908615126232
H           -4.92221123801010        1.84728622914564       -0.92734016892855
H           -6.02888315959176        1.45267550673001       -2.24565726135284
H           -6.66294561288904        1.74813748163319       -0.62415831921163
H           -7.15073117239233       -0.58332917414384       -3.33575556520380
H           -9.23093825534373       -1.89143856538151       -3.51090413735396
H          -10.21489736473362       -2.95158019916490       -1.53002118686731
H           -9.13585815344880       -2.72313992377231        0.68095481621432
H           -7.67568003275457       -2.18628449018828        2.70056526312515
H           -5.98911431732019       -1.40939521132510        4.33953155291227
H           -4.10262337492974       -0.02078011352762        3.60650601139450
H           -4.50042599716973        2.69956062576800        1.65736137398912
H           -2.54694480884251        4.10103295712873        1.10039337496893
H            2.55485361369879        4.20443469285243       -0.59744592759831
H            4.51074133394934        2.88041288695501       -1.31288092340678
H            4.12381060821200        0.42241156854462       -3.59008688631261
H            6.01628842716087       -0.86482645261107       -4.47667668351345
H            7.69325132878475       -1.83753845282809       -2.93530198927674
H            4.36870816769031       -1.97996998715865        1.09748924374201
H            3.58108416153200       -0.41427020653067        1.32910064594928
H            4.65878290998761       -1.05422924878019        2.57262273760541
H            6.64927962501900        1.65550205847378        0.84613357647310
H            4.90675714753610        1.71169747571411        1.15003292628041
H            6.00797269362647        1.15734287867849        2.41426625665323
H            7.12662176362845       -0.99412706843144        3.24938526605469
H            9.20889016895683       -2.31041052134249        3.27507240363865
H           10.20796037394217       -3.11569196095132        1.18476853655740
H            9.14235651588236       -2.61732833866541       -0.98800368840636
H            2.22680407875631       -0.69664490814034       -0.80231248599152
H           -2.22662614523337       -0.78721400721193        0.68541996406126
