  85
  -134.061705783700       0.485635648162913      !
 C          2.8538497567        4.8772532043        0.0215303574
 C          2.9599274848        4.1359753979        1.3527366526
 N          2.4114537114        2.8098902173        1.2728534305
 C          1.1234334549        2.4269374504        1.5991897371
 C          0.0718296125        3.2031605265        2.0517639502
 C         -1.1435684809        2.5792521571        2.3022476139
 C         -1.3094278857        1.2151228479        2.1027677766
 C         -0.2669037787        0.4206647397        1.6586199717
 C          0.9651709919        1.0203382567        1.4048808497
 C          2.2261013765        0.5762179188        0.9357450425
 C          3.0734864969        1.6999759596        0.8399075524
 C          4.3053198677        1.2751742374        0.2933409954
 C          5.5114402872        1.8903014383       -0.0458446237
 C          6.5319499764        1.1133674302       -0.5567001476
 C          6.3804720303       -0.2601955141       -0.7251087307
 C          5.1896586615       -0.8985495007       -0.4046617526
 C          4.1496471971       -0.1316736291        0.0839907472
 N          2.8809897452       -0.5333143520        0.4833526342
 C          2.3335608409       -1.8173188343        0.4282773887
 C          1.6501222886       -2.3128405018        1.5480607797
 C          0.9773494631       -3.5083703259        1.4689000209
 C          0.9816045811       -4.2293386423        0.2771839487
 S         -0.3530663059       -5.3789153171       -0.0066853420
 O         -0.1113138491       -6.1296280620       -1.2112749840
 O         -0.6841620118       -6.0984138988        1.1960077817
 C         -1.5315376581       -4.0716179060       -0.2864532941
 C         -1.4291657367       -3.3492313366       -1.4745802444
 C         -1.9377567784       -2.0762583865       -1.5478994525
 C         -2.5587560432       -1.5016861749       -0.4268657871
 N         -2.9293322099       -0.1586952801       -0.4747755995
 C         -4.1367871379        0.4072820517       -0.0623587970
 C         -5.2621639254       -0.2180060781        0.4265090971
 C         -6.3627458000        0.5717088541        0.7577509546
 C         -6.3308571870        1.9523829847        0.5999953036
 C         -5.2190936547        2.5928557837        0.0872562203
 C         -4.1054497403        1.8245466415       -0.2681308217
 C         -2.8399356720        2.0855672079       -0.8282741285
 C         -2.1397662472        0.8519396772       -0.9320913727
 C         -0.8374586744        1.1288345353       -1.4075973777
 C          0.3088605404        0.3752660328       -1.6638686813
 C          1.4437694362        1.0320666337       -2.1154142974
 C          1.4532529929        2.4019278429       -2.3204337830
 C          0.3229420043        3.1789260816       -2.0646666939
 C         -0.8117620017        2.5434926895       -1.6045082155
 N         -2.0410927245        3.0933615404       -1.2695752623
 C         -2.3993248708        4.4816461802       -1.3618048415
 C         -2.0357476447        5.2512222023       -0.0934521506
 C         -2.7286592139       -2.2609597598        0.7386589221
 C         -2.2021614593       -3.5298847207        0.8088388686
 C          1.7127926640       -3.7735973806       -0.8169529585
 C          2.3976042277       -2.5815916408       -0.7421908491
 H          1.8124851514        4.9607139899       -0.2782799246
 H          3.3906887357        4.3337624522       -0.7516464503
 H          3.2778893681        5.8737276679        0.1129962746
 H          4.0099215060        4.0518691788        1.6484465281
 H          2.4272284476        4.6858237436        2.1331340972
 H          0.1815537287        4.2653143206        2.2118236803
 H         -1.9760796552        3.1663936781        2.6599934177
 H         -2.2717380812        0.7690845727        2.3053422162
 H         -0.4044772853       -0.6384844281        1.5034903845
 H          5.6448242853        2.9532267153        0.0898645867
 H          7.4700040782        1.5765589639       -0.8241564091
 H          7.2037348484       -0.8417110218       -1.1105050643
 H          5.0864207458       -1.9658042507       -0.5251546077
 H          1.6526793472       -1.7358935824        2.4606320375
 H          0.4252296773       -3.9003969231        2.3083436891
 H         -0.9317783021       -3.8064677325       -2.3152241357
 H         -1.8634253131       -1.4993335170       -2.4573790050
 H         -5.3020762127       -1.2899799228        0.5414969124
 H         -7.2529271328        0.0989717598        1.1424784854
 H         -7.1974076957        2.5344087784        0.8769745792
 H         -5.2099437394        3.6653135191       -0.0363817769
 H          0.3116637467       -0.6922083354       -1.5072591283
 H          2.3397512220        0.4644665202       -2.3184192982
 H          2.3499933998        2.8798921842       -2.6845678214
 H          0.3467812799        4.2455396724       -2.2304432931
 H         -1.8851269921        4.9165731053       -2.2240077459
 H         -3.4764440891        4.5414100361       -1.5381703049
 H         -0.9663747436        5.1867901296        0.0896890835
 H         -2.5564980050        4.8285384589        0.7615983468
 H         -2.3154706722        6.2961816681       -0.1974508175
 H         -3.2152915084       -1.8213136859        1.5961384659
 H         -2.2716293927       -4.1193232765        1.7094653270
 H          1.7052339920       -4.3626634745       -1.7203088184
 H          2.9350011368       -2.2031811300       -1.5985932299
  85
  -134.061487734800       0.385569100679930      !
 C          2.8483183892        4.9100744876        0.0514996714
 C          3.0214922616        4.1280850552        1.3520314809
 N          2.4672106552        2.8052639761        1.2617335337
 C          1.1733582124        2.4339278139        1.5840128910
 C          0.1285539946        3.2214739257        2.0297635900
 C         -1.0953367782        2.6090643474        2.2763442142
 C         -1.2732883204        1.2471481249        2.0780896608
 C         -0.2359463013        0.4407760165        1.6409437685
 C          1.0034356238        1.0286604533        1.3922748072
 C          2.2613523543        0.5725685190        0.9290042147
 C          3.1218482809        1.6905606941        0.8329995631
 C          4.3487976646        1.2530325823        0.2882995996
 C          5.5614437138        1.8563468106       -0.0526219694
 C          6.5760852433        1.0676223630       -0.5579170681
 C          6.4131802707       -0.3048322901       -0.7204754915
 C          5.2140242767       -0.9311872536       -0.4009024000
 C          4.1811145864       -0.1533717880        0.0820840988
 N          2.9060383460       -0.5423851835        0.4797616675
 C          2.3491109375       -1.8216756791        0.4282733495
 C          1.6582690859       -2.3079661325        1.5482269557
 C          0.9793997214       -3.4998439706        1.4726329172
 C          0.9826416762       -4.2263706763        0.2837999904
 S         -0.3545494291       -5.3720824474        0.0019853288
 O         -0.1136822413       -6.1258486369       -1.2011313477
 O         -0.6894881551       -6.0874638746        1.2059437553
 C         -1.5313860975       -4.0640850160       -0.2819572870
 C         -1.4276434775       -3.3422700643       -1.4699636002
 C         -1.9430616059       -2.0718782969       -1.5462644496
 C         -2.5716587160       -1.5003488678       -0.4286688079
 N         -2.9527277586       -0.1596136248       -0.4798087860
 C         -4.1676196484        0.3958729173       -0.0811550353
 C         -5.2936670208       -0.2383497852        0.3980413537
 C         -6.4025741724        0.5419348431        0.7161066653
 C         -6.3813239993        1.9231722464        0.5554712224
 C         -5.2698066682        2.5717977387        0.0534740516
 C         -4.1464526008        1.8127397677       -0.2874807216
 C         -2.8750461475        2.0839620484       -0.8329094159
 C         -2.1670498579        0.8581558251       -0.9305772100
 C         -0.8611366602        1.1446056346       -1.3933512484
 C          0.2907395485        0.3984118963       -1.6428182916
 C          1.4262268756        1.0627556656       -2.0790317936
 C          1.4303762410        2.4350844241       -2.2745755996
 C          0.2953395488        3.2042762988       -2.0267145973
 C         -0.8428250624        2.5601906995       -1.5840032997
 N         -2.0784205054        3.0999384613       -1.2620117810
 C         -2.4495464171        4.4851081486       -1.3521362150
 C         -2.1587571055        5.2393379189       -0.0560889239
 C         -2.7407051963       -2.2582482337        0.7372722402
 C         -2.2082178721       -3.5248285908        0.8103217105
 C          1.7181792321       -3.7783836814       -0.8111843973
 C          2.4106000068       -2.5910820855       -0.7396087866
 H          3.3497280279        4.3948828806       -0.7633657838
 H          3.2722518257        5.9053958148        0.1542205706
 H          1.7933479906        4.9972294375       -0.1945665223
 H          4.0845967004        4.0342491807        1.5908336971
 H          2.5302142630        4.6548775983        2.1749373816
 H          0.2485719278        4.2826938811        2.1887019253
 H         -1.9228505339        3.2056648843        2.6295141834
 H         -2.2408598334        0.8102809737        2.2758589906
 H         -0.3829669587       -0.6171993111        1.4871217401
 H          5.7036487745        2.9187786572        0.0772251553
 H          7.5188114748        1.5213205306       -0.8250381744
 H          7.2319685740       -0.8958550945       -1.1005658035
 H          5.1015476368       -1.9978659509       -0.5179561153
 H          1.6624534772       -1.7274787505        2.4585524246
 H          0.4233932519       -3.8855355269        2.3124149687
 H         -0.9237828127       -3.7969499041       -2.3081280800
 H         -1.8673074572       -1.4946762723       -2.4555251251
 H         -5.3248832126       -1.3104912875        0.5144131437
 H         -7.2932459576        0.0631454702        1.0923314169
 H         -7.2560461391        2.4979033167        0.8215318507
 H         -5.2689262896        3.6439475040       -0.0735495139
 H          0.2974657108       -0.6698758364       -1.4911751038
 H          2.3270720499        0.5014531311       -2.2781422486
 H          2.3287615338        2.9188112142       -2.6269198950
 H          0.3167568339        4.2721996186       -2.1837488878
 H         -1.8995150247        4.9385550226       -2.1815962214
 H         -3.5177351236        4.5351619678       -1.5804056073
 H         -1.1000416060        5.1792390381        0.1821592249
 H         -2.7207847206        4.8013536793        0.7644798690
 H         -2.4406812633        6.2836676185       -0.1600563087
 H         -3.2341349968       -1.8205795988        1.5918711199
 H         -2.2798658192       -4.1147402623        1.7103431061
 H          1.7084487091       -4.3714273614       -1.7119167710
 H          2.9518970387       -2.2192021409       -1.5964085665
  85
  -134.059925644700       7.382701641281200E-002 !
 C          2.6172151220        4.9279388012        0.0989158546
 C          2.8397022720        4.1400175821        1.3882814188
 N          2.3182714342        2.8041800587        1.2979394703
 C          1.0394402227        2.3961746630        1.6444824255
 C         -0.0125439906        3.1531711377        2.1202147366
 C         -1.2198238124        2.5085467505        2.3818335831
 C         -1.3675300375        1.1464643707        2.1712218386
 C         -0.3194001513        0.3690597683        1.7049648477
 C          0.9018899628        0.9889223109        1.4401217817
 C          2.1603876494        0.5682451323        0.9493118174
 C          2.9911140651        1.7127610046        0.8425372782
 C          4.2130666271        1.3144535361        0.2633091418
 C          5.3973197967        1.9569326218       -0.1081173834
 C          6.4205914001        1.2017752509       -0.6475022130
 C          6.2950648209       -0.1732813152       -0.8130358483
 C          5.1226361576       -0.8383165269       -0.4630472807
 C          4.0813478252       -0.0954913476        0.0511552021
 N          2.8259162650       -0.5243000095        0.4786216325
 C          2.3036450733       -1.8167336097        0.4297309773
 C          1.6300852704       -2.3208023885        1.5535734603
 C          0.9727331420       -3.5241425506        1.4792892361
 C          0.9780065323       -4.2467180115        0.2870552880
 S         -0.3564928479       -5.3942016504        0.0036472214
 O         -0.1169834315       -6.1496109436       -1.1985467161
 O         -0.6943261920       -6.1078597769        1.2077011536
 C         -1.5286729362       -4.0808937224       -0.2824263995
 C         -1.4299814738       -3.3682815882       -1.4760139992
 C         -1.9243337946       -2.0889553889       -1.5525364357
 C         -2.5226339562       -1.4984821285       -0.4291343072
 N         -2.8717813353       -0.1478683207       -0.4807323718
 C         -4.0588633248        0.4415833583       -0.0572217437
 C         -5.1909020940       -0.1577152087        0.4569409455
 C         -6.2640872262        0.6551727509        0.8042377187
 C         -6.2080579508        2.0353958720        0.6368631839
 C         -5.0939156745        2.6482836729        0.0981951030
 C         -4.0044631549        1.8559041681       -0.2697154451
 C         -2.7371416417        2.0897285033       -0.8455601442
 C         -2.0666939211        0.8489794332       -0.9499246857
 C         -0.7618729827        1.0997134580       -1.4392373981
 C          0.3663511656        0.3243831117       -1.7036928634
 C          1.5076232650        0.9555453608       -2.1691403703
 C          1.5411246999        2.3265106071       -2.3795116669
 C          0.4314932397        3.1239327344       -2.1190794943
 C         -0.7130869427        2.5127978907       -1.6435022082
 N         -1.9258806160        3.0850380767       -1.2990652408
 C         -2.2679164254        4.4779838209       -1.3865030490
 C         -1.9533955858        5.2251276609       -0.0920847900
 C         -2.6920482188       -2.2476561757        0.7417069167
 C         -2.1836689916       -3.5244762912        0.8142341759
 C          1.7016614444       -3.7833230669       -0.8102852568
 C          2.3745850183       -2.5854573696       -0.7395536962
 H          1.5542130394        5.0041549532       -0.1144463837
 H          3.0984677262        4.4230093729       -0.7345079686
 H          3.0311810151        5.9281066149        0.1953946597
 H          3.9098993739        4.0715947011        1.6020883876
 H          2.3537504861        4.6468313174        2.2267229617
 H          0.0848947606        4.2145727914        2.2912993631
 H         -2.0551816092        3.0818958187        2.7547778501
 H         -2.3208953221        0.6844790125        2.3803314717
 H         -0.4435855477       -0.6904465662        1.5432321905
 H          5.5098094365        3.0226763968        0.0229822689
 H          7.3405784423        1.6860072309       -0.9396441920
 H          7.1195378907       -0.7380962366       -1.2195784120
 H          5.0414878784       -1.9073440845       -0.5836946776
 H          1.6315288564       -1.7439308294        2.4661848848
 H          0.4304594830       -3.9226715359        2.3220543658
 H         -0.9450244522       -3.8358930427       -2.3182163502
 H         -1.8506800872       -1.5187765026       -2.4664058799
 H         -5.2502856040       -1.2281789959        0.5778107265
 H         -7.1565231140        0.2050388618        1.2107143207
 H         -7.0569475883        2.6363062997        0.9273589196
 H         -5.0658405351        3.7193440990       -0.0355058439
 H          0.3492788226       -0.7423323032       -1.5416757102
 H          2.3918877666        0.3721122206       -2.3781381497
 H          2.4458047913        2.7835429921       -2.7516746323
 H          0.4748368667        4.1890585472       -2.2897119005
 H         -1.7145217449        4.9202286584       -2.2196255318
 H         -3.3364028332        4.5506450425       -1.6074666847
 H         -0.8910877228        5.1606045701        0.1283771611
 H         -2.5020950001        4.7841655695        0.7359292792
 H         -2.2322225641        6.2712824967       -0.1861037192
 H         -3.1653209925       -1.7975365831        1.6010535537
 H         -2.2554531034       -4.1081162094        1.7183263827
 H          1.6961329700       -4.3731081623       -1.7132292227
 H          2.9038825486       -2.2033693678       -1.5991430146
  85
  -134.059646897100       5.496823474434497E-002 !
 C          3.1005447349        4.8562937520       -0.0103758907
 C          3.1700362402        4.1149104898        1.3233152517
 N          2.5874051651        2.8040070539        1.2398003392
 C          1.2797741627        2.4619090341        1.5465433049
 C          0.2445063426        3.2747639148        1.9645085753
 C         -0.9956641680        2.6875972058        2.2045007504
 C         -1.1964280966        1.3278475612        2.0229103075
 C         -0.1687872196        0.4961403800        1.6072943454
 C          1.0849383793        1.0581930036        1.3673135288
 C          2.3368874002        0.5728716009        0.9211837227
 C          3.2254358177        1.6748324435        0.8286601569
 C          4.4483302398        1.2081822399        0.3043043262
 C          5.6817881151        1.7822630071       -0.0173641480
 C          6.6872725613        0.9672343360       -0.4999659098
 C          6.4960947602       -0.4010416278       -0.6606705055
 C          5.2745746905       -0.9985823368       -0.3605828583
 C          4.2532316464       -0.1957077498        0.1002670961
 N          2.9615620298       -0.5553448811        0.4821575080
 C          2.3822969075       -1.8230104960        0.4302868707
 C          1.6668609235       -2.2906686518        1.5440244723
 C          0.9749223868       -3.4741484127        1.4682867006
 C          0.9855947982       -4.2108302541        0.2850606808
 S         -0.3528068998       -5.3532183083        0.0040066635
 O         -0.1138545599       -6.1077537158       -1.1990428197
 O         -0.6882241180       -6.0682599907        1.2081458112
 C         -1.5326306617       -4.0471858181       -0.2795594408
 C         -1.4304002291       -3.3240132965       -1.4660849155
 C         -1.9633989217       -2.0605974535       -1.5456709694
 C         -2.6061523321       -1.4991972413       -0.4319865737
 N         -3.0146021535       -0.1654341807       -0.4872404693
 C         -4.2462282769        0.3618380769       -0.1111149513
 C         -5.3683693056       -0.2984245815        0.3464799964
 C         -6.4987053769        0.4554181963        0.6412288436
 C         -6.5062301916        1.8375830418        0.4796018493
 C         -5.3995846453        2.5110402426        0.0013315786
 C         -4.2526724187        1.7786924135       -0.3140279787
 C         -2.9739441630        2.0787868382       -0.8317017904
 C         -2.2429989891        0.8713903502       -0.9223585774
 C         -0.9346884299        1.1849665146       -1.3637319173
 C          0.2315550826        0.4601093397       -1.6037695539
 C          1.3623064804        1.1461665097       -2.0141260817
 C          1.3467134337        2.5224333586       -2.1915386746
 C          0.1983182313        3.2694615997       -1.9535599967
 C         -0.9396497816        2.6024236578       -1.5398892180
 N         -2.1890624612        3.1153269782       -1.2371070576
 C         -2.5927692733        4.4922936622       -1.3176521079
 C         -2.4353338107        5.2120964337        0.0203312063
 C         -2.7678855167       -2.2566412631        0.7340702586
 C         -2.2198696540       -3.5169162424        0.8099345625
 C          1.7390928495       -3.7791138720       -0.8047072796
 C          2.4472915326       -2.6016581089       -0.7322287675
 H          3.5303814508        5.8490982891        0.0916192199
 H          2.0667434448        4.9474523027       -0.3339260581
 H          3.6530145950        4.3097272666       -0.7701631162
 H          4.2135523922        4.0037976572        1.6324334792
 H          2.6418276771        4.6800266925        2.0955332372
 H          0.3809725199        4.3363785270        2.1069892591
 H         -1.8143876243        3.3054479064        2.5404067950
 H         -2.1733228681        0.9101276019        2.2163796609
 H         -0.3349461481       -0.5604037175        1.4637486440
 H          5.8461863222        2.8414936635        0.1112707053
 H          7.6451893438        1.3979943247       -0.7502822132
 H          7.3075620304       -1.0134281534       -1.0226108275
 H          5.1404325489       -2.0628916789       -0.4756499681
 H          1.6677165526       -1.7036845138        2.4501434101
 H          0.4041092892       -3.8474133380        2.3037182679
 H         -0.9151387735       -3.7717983865       -2.3010364507
 H         -1.8899913762       -1.4820417789       -2.4542854484
 H         -5.3759073593       -1.3710917561        0.4624351896
 H         -7.3859679284       -0.0426003962        1.0003622909
 H         -7.3998146684        2.3916237286        0.7259580542
 H         -5.4217347340        3.5826340516       -0.1288777405
 H          0.2531922605       -0.6096229244       -1.4630195178
 H          2.2746148648        0.6018973297       -2.2078705986
 H          2.2430541400        3.0244622788       -2.5228616341
 H          0.2056871504        4.3402788742       -2.0935173037
 H         -1.9895794141        4.9862683137       -2.0837900390
 H         -3.6397766866        4.5212843163       -1.6337806418
 H         -1.3992984925        5.1733232501        0.3466822838
 H         -3.0532446356        4.7334899703        0.7758544108
 H         -2.7391184143        6.2512021092       -0.0763047910
 H         -3.2714017626       -1.8245373038        1.5856735143
 H         -2.2889252066       -4.1081526442        1.7092440778
 H          1.7317843203       -4.3778294779       -1.7017521883
 H          3.0045197560       -2.2429105602       -1.5844960973
