53
 energy: -91.515453819727 gnorm: 0.000054179683 xtb: 6.7.1 (edcfbbe)
O            4.05133425829570        1.41479830788115       -1.71028131894633
C            3.22456609253756        0.80509809031315       -1.02721139173896
C            1.79264318822029        0.93681687649842       -1.19376869838827
C            1.28636220967754        1.77206979287384       -2.20543691202171
C           -0.07196022970412        1.89003087522521       -2.38836466035330
C           -0.96249494728368        1.20687526017943       -1.56674529029481
C           -0.49643781066667        0.38816040473053       -0.52827950597691
C           -1.35377423035939       -0.34819757241174        0.33561681394316
N           -2.75446268094307       -0.20274126097998        0.24657237672240
C           -3.54137594215918       -1.27325523821405       -0.12959938887564
C           -2.99488224186506       -2.50334486228416       -0.51277488073431
C           -3.81685101935616       -3.54916307999144       -0.87546601768270
C           -5.20036611201319       -3.39662884823051       -0.87983519602389
C           -5.76218160277319       -2.18126160800541       -0.54000670727221
C           -4.94504667258277       -1.11950570007075       -0.17286150708494
O           -5.54412863876175        0.06040583206970        0.12332102546656
C           -4.76446984316754        1.10697549159686        0.49218354527809
C           -5.40029003164493        2.30094489064185        0.81110038455437
C           -4.65537275842227        3.38717488469761        1.22650390352085
C           -3.27269294846632        3.27805147206998        1.34541419820437
C           -2.63035161767902        2.09934944624458        1.03159794581252
C           -3.35961354844155        0.99595581017475        0.57549826533883
C           -0.83274109743055       -1.22727719726097        1.29903054620334
C            0.51940790942664       -1.36017742710353        1.46208965965731
C            1.41158780879545       -0.63024702124309        0.64412598251314
C            0.90927587087318        0.23409883791190       -0.35090255890575
C            2.83366223791718       -0.78804047426800        0.83197957402449
O            3.33539006335766       -1.53535226704284        1.67798955494164
N            3.65038065207615       -0.04824059333878       -0.01714408981974
C            5.06380463202167       -0.18012161179830        0.16639310754455
C            5.82418752157775       -0.84701671062490       -0.78153823650326
C            7.19166624792441       -0.96209029682691       -0.60365875981330
C            7.79560477300249       -0.42303757203282        0.51969312131772
C            7.03079263022423        0.23684248198655        1.46675640616425
C            5.66426328035885        0.36427609672508        1.29109640869798
H            1.99414617228433        2.30066369991433       -2.82550435473223
H           -0.45664948021779        2.52463554179966       -3.17292446493338
H           -2.02266000088667        1.31569375567255       -1.73705313977958
H           -1.92362465770600       -2.62076975938730       -0.52786554620479
H           -3.37736798341400       -4.49023814698577       -1.16567070865993
H           -5.83581464918920       -4.22014118144690       -1.16315595129106
H           -6.82861560537194       -2.02461501929039       -0.55500253916341
H           -6.47417593279457        2.34625500286460        0.72932567247254
H           -5.14885866443432        4.31412839351003        1.47056751908804
H           -2.69277505844908        4.11863197754808        1.69174975293370
H           -1.56128913261992        2.01692096834962        1.13703486587502
H           -1.51677567848315       -1.76008242003727        1.94306485143788
H            0.94055394647838       -2.00715419047607        2.21525303674309
H            5.34243828112921       -1.26286711775898       -1.65475133773046
H            7.78446410464005       -1.47740538874195       -1.34496462156450
H            8.86257550206380       -0.51733139409242        0.65708448604682
H            7.49735196630605        0.65891774498656        2.34465552451506
H            5.05741259260111        0.87774524643814        2.02291321043498
