53
 energy: -91.571815642557 gnorm: 0.000061152393 xtb: 6.7.1 (edcfbbe)
O            4.05608073227435        1.47999337973525       -1.64937256863725
C            3.24552726481249        0.84857845100550       -0.99457788725581
C            1.79279713615266        0.97027687751114       -1.17517186388822
C            1.29601534294607        1.81508420620174       -2.14895626419850
C           -0.08051242191514        1.92844864311179       -2.34580562775102
C           -0.95614833971589        1.23008154843136       -1.55275683959506
C           -0.48918510074116        0.37908930297381       -0.53068860067351
C           -1.35996779420870       -0.37430415944299        0.31019357415419
N           -2.74961793217729       -0.21797787254472        0.20043902658013
C           -3.57190215834195       -1.30425381491045       -0.12964582509796
C           -3.05812655066891       -2.55007952182555       -0.47104468565753
C           -3.89966094400039       -3.59600253241091       -0.81591553943787
C           -5.26882494988669       -3.41346624567798       -0.83831310127030
C           -5.79591700165735       -2.16781382401840       -0.53566631381496
C           -4.95924203139640       -1.11904043335793       -0.19529768405612
O           -5.55556162069365        0.09433206337553        0.04487961874486
C           -4.74611810263598        1.12886356050667        0.44341644841562
C           -5.36819478430905        2.32269815700994        0.76642332135927
C           -4.62117549016002        3.40249258428622        1.21022319568860
C           -3.25334112992379        3.27078922271218        1.35434908263284
C           -2.62645074809434        2.07749618058645        1.03305105114301
C           -3.35528166506072        0.99983904291991        0.54292347664416
C           -0.83477078069132       -1.26663089225403        1.22792994284219
C            0.53888606024488       -1.41138716011265        1.37884033399693
C            1.41503525190616       -0.66830486326322        0.60669983744895
C            0.91176055124808        0.22701786718697       -0.36068562056945
C            2.85889172255692       -0.82221871675074        0.79576404304518
O            3.35417012155095       -1.58828112498170        1.60421085520602
N            3.66839275374578       -0.03646696302332       -0.01482879550279
C            5.08812167993398       -0.16361639524580        0.17318082422056
C            5.84459522061706       -0.85428158053314       -0.75969463200842
C            7.21189408552264       -0.96737998508000       -0.57682750139307
C            7.81477551499909       -0.40028482143320        0.53339287913609
C            7.05115807569214        0.28450689487104        1.46378787921941
C            5.68423557780303        0.40834313414864        1.28547872297952
H            1.99457569539789        2.37193620894652       -2.75545434950585
H           -0.45418078943160        2.57133177732307       -3.12746678474035
H           -2.01888965213487        1.32600710254984       -1.71371507799531
H           -1.99085476551743       -2.70386757897595       -0.47805041707235
H           -3.47213257961314       -4.55295872575461       -1.07219702355803
H           -5.92827600956862       -4.22539577156058       -1.10089993642279
H           -6.85805695616482       -1.98259812288129       -0.56548328052918
H           -6.44044071629160        2.38174704796079        0.66618297568648
H           -5.11318154957913        4.33083204441433        1.45351828079838
H           -2.66099640789761        4.09328559879147        1.72400606225125
H           -1.56035537473085        1.98498298826677        1.16584303600176
H           -1.50398762892203       -1.83806626326277        1.85346550685437
H            0.94451603220966       -2.08899215796296        2.11489767650460
H            5.36330904861317       -1.29247121511265       -1.62182077673073
H            7.80464250487148       -1.50217035275257       -1.30364749414884
H            8.88123312255448       -0.49262977170657        0.67391864421613
H            7.51810174071901        0.72733444319816        2.33069666801464
H            5.07840744308661        0.94075959983990        2.00411151511222
