  78
  -117.447022109800       0.235070995338203      !
 C          0.8007360365       -2.6868279914       -1.9799200250
 C          1.7177233186       -3.4209049136       -0.9906738625
 C          2.9863555976       -3.8600291637       -1.7418533857
 C          1.0526224384       -4.7017410847       -0.4409656173
 C          0.0948203776       -4.5380252900        0.7574438577
 C         -1.2421292341       -3.9574092726        0.3317911727
 C         -2.2158062525       -4.7925193094       -0.2056128825
 C         -3.4336603159       -4.2839723662       -0.6278353848
 C         -3.6974372434       -2.9317698425       -0.5278889083
 C         -2.7308113906       -2.0838309584        0.0066179804
 C         -2.9632808925       -0.6427592666        0.0967165563
 N         -4.1718412652       -0.1778868449       -0.2026052383
 C         -4.3282348933        1.1396815792       -0.1043844458
 C         -5.6348744210        1.7045122277       -0.4413369687
 C         -5.8233128903        3.0852692964       -0.4303472241
 C         -7.0543183289        3.6174392457       -0.7608058742
 C         -8.1044362355        2.7800652652       -1.1038504523
 C         -7.9220135169        1.4058100084       -1.1154352316
 C         -6.6935449000        0.8668711432       -0.7861254257
 N         -3.3661838683        1.9768283607        0.2726124067
 C         -2.1836544768        1.4272325115        0.5335051287
 C         -1.0838217365        2.3134543617        0.9151947136
 C          0.2303357090        1.8504673820        0.8988095477
 C          1.2649446641        2.7010621309        1.2380416680
 C          0.9965258323        4.0095558412        1.6082255991
 C         -0.3100576784        4.4723442432        1.6335052683
 C         -1.3479575029        3.6312264209        1.2829474191
 N         -1.9376819969        0.1234755172        0.4588346164
 C         -1.5153609868       -2.6040533388        0.4426192483
 C          0.7293666813       -3.7228635773        1.8320280037
 C          1.6325944222       -2.7612769897        1.4690987101
 N          2.2160085785       -1.8261241672        2.3034954821
 C          2.9762374862       -0.9703349231        1.5659115055
 C          3.7169561636        0.1200528350        2.0017303987
 C          4.3920542364        0.8443349532        1.0266482192
 C          4.3106061357        0.4721340285       -0.3579819329
 C          3.5868041309       -0.6193749712       -0.7769272176
 C          2.9073948833       -1.3761259928        0.1937784139
 C          2.0854605682       -2.5203395463        0.1480844345
 C          5.0910265951        1.4360424794       -1.0943622468
 C          5.3645494565        1.5763095104       -2.4408852871
 C          6.1655772905        2.6292678138       -2.8571059974
 C          6.6952344480        3.5427478013       -1.9407505744
 C          6.4387745137        3.4269998402       -0.5938588581
 C          5.6314415941        2.3705063997       -0.1463581703
 C          5.2069101285        2.0078465067        1.1372382973
 H          0.5577922280       -3.3366020461       -2.8185791732
 H          1.2996646117       -1.8000889431       -2.3619857547
 H         -0.1232136634       -2.3772594162       -1.5021226337
 H          3.4530275285       -3.0181023317       -2.2413614986
 H          2.7342571059       -4.6074090750       -2.4914557434
 H          3.7096549371       -4.2891029791       -1.0519640251
 H          0.5189344405       -5.1978072201       -1.2538161261
 H          1.8515439599       -5.3699931441       -0.1099311211
 H         -0.1090672292       -5.5448475775        1.1441449617
 H         -2.0193035690       -5.8520494489       -0.2942859383
 H         -4.1775101258       -4.9502302170       -1.0399167567
 H         -4.6351243741       -2.5159775529       -0.8600675314
 H         -4.9926772535        3.7206324878       -0.1656435275
 H         -7.1988139419        4.6878843691       -0.7536556568
 H         -9.0658078931        3.1990409007       -1.3634324200
 H         -8.7421305073        0.7556585840       -1.3834672838
 H         -6.5325502339       -0.1996848715       -0.7889519017
 H          0.4259425522        0.8303120780        0.6063544717
 H          2.2834578084        2.3459922512        1.2099366389
 H          1.8087286019        4.6704347763        1.8742532442
 H         -0.5163280762        5.4923765718        1.9234027345
 H         -2.3709670069        3.9736441862        1.2916493338
 H         -0.7902661992       -1.9249676946        0.8626958770
 H          0.3898900535       -3.8329900908        2.8491362376
 H          2.0466608528       -1.7530412599        3.2918994388
 H          3.7535932112        0.3970499999        3.0454063248
 H          3.5335034913       -0.8746303137       -1.8230758205
 H          4.9627114825        0.8794724508       -3.1624323396
 H          6.3867847074        2.7497037479       -3.9077489040
 H          7.3150685437        4.3499373499       -2.3037273372
 H          6.8489367919        4.1338859585        0.1130362479
 H          5.4463909799        2.5160243577        2.0537551341
  78
  -117.446778098700       0.181576361373651      !
 C          0.8163316423       -2.6017798087       -1.9933354654
 C          1.7192457090       -3.3606762693       -1.0096991617
 C          3.0005487744       -3.7748414822       -1.7538027843
 C          1.0500303153       -4.6595376821       -0.5082967718
 C          0.0792135698       -4.5419604612        0.6852302854
 C         -1.2643428244       -3.9691547024        0.2705810300
 C         -2.2474386437       -4.8097436939       -0.2398673269
 C         -3.4744672113       -4.3061421391       -0.6416892366
 C         -3.7375480776       -2.9532416829       -0.5497802902
 C         -2.7594430406       -2.0996622629       -0.0465566500
 C         -2.9852133229       -0.6566876541        0.0278335681
 N         -4.2170041701       -0.1965957483       -0.1625474194
 C         -4.3622659752        1.1235673210       -0.0786736352
 C         -5.7007880016        1.6799603366       -0.2751072338
 C         -5.8917019978        3.0602382766       -0.2798377642
 C         -7.1562128196        3.5821499824       -0.4711656560
 C         -8.2372114581        2.7348144137       -0.6590345535
 C         -8.0520917991        1.3609063006       -0.6552191158
 C         -6.7904271460        0.8322285689       -0.4641619745
 N         -3.3646057660        1.9682896094        0.1654820096
 C         -2.1615299704        1.4221396484        0.3184300334
 C         -1.0227176514        2.3115918451        0.5462748863
 C          0.2788274723        1.8223040517        0.4506327846
 C          1.3508252446        2.6723470365        0.6425795924
 C          1.1338102149        4.0079625313        0.9434495922
 C         -0.1591406769        4.4975217618        1.0472004314
 C         -1.2355137043        3.6559476520        0.8445418399
 N         -1.9284740872        0.1147655557        0.2670661598
 C         -1.5359662444       -2.6146438396        0.3716429393
 C          0.6889561444       -3.7466227404        1.7885679104
 C          1.5899483660       -2.7691091327        1.4654735025
 N          2.1559335009       -1.8562185526        2.3355370264
 C          2.9342150786       -0.9840841931        1.6372832419
 C          3.6719857200        0.0887805862        2.1191476509
 C          4.3815060768        0.8278480804        1.1811254485
 C          4.3319610094        0.4906870510       -0.2146743351
 C          3.6033032470       -0.5787211521       -0.6802456266
 C          2.8933988178       -1.3537118380        0.2537495181
 C          2.0674013974       -2.4922890404        0.1600629384
 C          5.1438424681        1.4623025500       -0.9058785443
 C          5.4544259030        1.6327910746       -2.2408601219
 C          6.2809069250        2.6839684826       -2.6087947363
 C          6.7993926877        3.5659934665       -1.6557380210
 C          6.5056667910        3.4201839777       -0.3195423591
 C          5.6717570823        2.3648400083        0.0795833520
 C          5.2085586259        1.9765427967        1.3421767356
 H         -0.1252386042       -2.3260147719       -1.5298422982
 H          0.6068520093       -3.2218876689       -2.8629593971
 H          1.3103948649       -1.6929523358       -2.3271019788
 H          3.7210531339       -4.2074643128       -1.0631384273
 H          3.4635980976       -2.9204847418       -2.2354742304
 H          2.7642828601       -4.5126065128       -2.5180512500
 H          0.5261721018       -5.1299081034       -1.3426057083
 H          1.8475871965       -5.3363296293       -0.1916137177
 H         -0.1120315793       -5.5620574053        1.0423794798
 H         -2.0522710238       -5.8700153609       -0.3225184515
 H         -4.2257949469       -4.9771821170       -1.0316933582
 H         -4.6822675088       -2.5413203249       -0.8667794422
 H         -5.0377365994        3.7031087864       -0.1352619500
 H         -7.3029074200        4.6523512745       -0.4758958344
 H         -9.2249469076        3.1455598176       -0.8097807923
 H         -8.8963122828        0.7029662171       -0.8016162339
 H         -6.6265815088       -0.2339933848       -0.4559562331
 H          0.4337415719        0.7808846866        0.2144299492
 H          2.3579860009        2.2962741770        0.5557122951
 H          1.9758860598        4.6678372794        1.0939756693
 H         -0.3252507492        5.5386473085        1.2829197146
 H         -2.2489306192        4.0186031026        0.9166013503
 H         -0.8040986757       -1.9315923087        0.7733465727
 H          0.3333511704       -3.8846294692        2.7967412918
 H          1.9672042397       -1.8093287941        3.3221320173
 H          3.6849928813        0.3388009745        3.1699226817
 H          3.5721751969       -0.8043860149       -1.7340260742
 H          5.0616459928        0.9607948380       -2.9903725445
 H          6.5316049651        2.8277179466       -3.6497992417
 H          7.4406579194        4.3722821807       -1.9817836104
 H          6.9074051100        4.1021973178        0.4160645242
 H          5.4304045281        2.4581003173        2.2771120094
  78
  -117.446687492600       0.164975566552068      !
 C          0.8473749885       -2.5387902341       -2.0000951010
 C          1.7313461075       -3.3281762748       -1.0227346399
 C          3.0243567392       -3.7240462860       -1.7569501871
 C          1.0506468190       -4.6398499353       -0.5716860428
 C          0.0687340508       -4.5642786056        0.6162945954
 C         -1.2790164474       -3.9914038923        0.2150817668
 C         -2.2743520892       -4.8314959623       -0.2720238312
 C         -3.5086846215       -4.3265984661       -0.6492662576
 C         -3.7669507365       -2.9725930685       -0.5577508306
 C         -2.7749348314       -2.1193429416       -0.0825443274
 C         -2.9884060064       -0.6737660434       -0.0211541889
 N         -4.2291763878       -0.2075629970       -0.1108881772
 C         -4.3551263415        1.1162143671       -0.0505129808
 C         -5.7025341974        1.6814573907       -0.1206028362
 C         -5.8798164247        3.0626321602       -0.1721181119
 C         -7.1529358774        3.5938730610       -0.2406127166
 C         -8.2565007369        2.7549326066       -0.2572279395
 C         -8.0850807275        1.3802249837       -0.2052752207
 C         -6.8146552880        0.8421244964       -0.1377808616
 N         -3.3315760699        1.9575634795        0.0617532837
 C         -2.1235966679        1.4038785611        0.1216859802
 C         -0.9594547913        2.2857543242        0.1998411544
 C          0.3244534581        1.7642135076        0.0494011552
 C          1.4197396346        2.6046991831        0.0941235453
 C          1.2453664131        3.9641040390        0.3008831352
 C         -0.0291421993        4.4864863216        0.4586869381
 C         -1.1297200325        3.6535811215        0.4043276677
 N         -1.9085258546        0.0924294035        0.1017956065
 C         -1.5449460231       -2.6355451717        0.3138454649
 C          0.6577027939       -3.7937063863        1.7478815265
 C          1.5569511632       -2.8024173628        1.4644325521
 N          2.0968181395       -1.9054611139        2.3670006788
 C          2.8841146043       -1.0129036382        1.7059755832
 C          3.5954451925        0.0592491034        2.2274136543
 C          4.3231415031        0.8223341625        1.3239893222
 C          4.3204640134        0.5069702742       -0.0779700496
 C          3.6136899074       -0.5592343606       -0.5839305922
 C          2.8806480927       -1.3544803341        0.3146564426
 C          2.0606390040       -2.4931112317        0.1764087422
 C          5.1400162913        1.5008812334       -0.7284769933
 C          5.4841473966        1.7012263517       -2.0510332296
 C          6.3027110193        2.7724533698       -2.3767524494
 C          6.7794503992        3.6451597088       -1.3939990992
 C          6.4509639403        3.4701327857       -0.0692670630
 C          5.6241295783        2.3944761080        0.2872915535
 C          5.1286523726        1.9784379647        1.5287370985
 H          0.6664337087       -3.1269224979       -2.8979300088
 H          1.3420223163       -1.6139995706       -2.2860269032
 H         -0.1087369199       -2.2885285856       -1.5520223018
 H          3.4928028792       -2.8585450962       -2.2126522088
 H          2.8005316489       -4.4446055717       -2.5410704176
 H          3.7352783802       -4.1711939296       -1.0656667513
 H          0.5331566328       -5.0788603561       -1.4268346577
 H          1.8425993858       -5.3306118257       -0.2716133826
 H         -0.1150004171       -5.5960088475        0.9425760595
 H         -2.0831867365       -5.8924583261       -0.3553198187
 H         -4.2700086006       -4.9976339296       -1.0195252377
 H         -4.7176171592       -2.5598610969       -0.8557684991
 H         -5.0087542432        3.6987693279       -0.1617272571
 H         -7.2891033561        4.6646402244       -0.2826761244
 H         -9.2511901687        3.1730307567       -0.3109381948
 H         -8.9469026137        0.7290375934       -0.2172795664
 H         -6.6609746203       -0.2247921637       -0.0943898749
 H          0.4459523775        0.7042934429       -0.1111220920
 H          2.4118389322        2.2027765723       -0.0346825739
 H          2.1065441999        4.6155843132        0.3355770635
 H         -0.1621683135        5.5463204032        0.6206755019
 H         -2.1296192135        4.0415754624        0.5194600371
 H         -0.8042587001       -1.9529589778        0.7000321423
 H          0.2841736249       -3.9562929850        2.7459418234
 H          1.8867325004       -1.8832881933        3.3499820344
 H          3.5768637698        0.2897665375        3.2824851489
 H          3.6143201629       -0.7658025664       -1.6420991857
 H          5.1233116847        1.0370185559       -2.8231679829
 H          6.5790475704        2.9397191372       -3.4076527936
 H          7.4150975885        4.4682650583       -1.6871416101
 H          6.8198144619        4.1453547458        0.6893753603
 H          5.3147380158        2.4479459586        2.4773280225
  78
  -117.446608854700       0.151802929213079      !
 C          0.8081960033       -2.6263531505       -1.9880267427
 C          1.7183183068       -3.3789823613       -1.0062023199
 C          2.9923249103       -3.8029608969       -1.7572912230
 C          1.0506190819       -4.6713773719       -0.4870283825
 C          0.0825260908       -4.5362824933        0.7066930915
 C         -1.2580068568       -3.9607220546        0.2859205588
 C         -2.2339377363       -4.7980755671       -0.2437852928
 C         -3.4571795930       -4.2927115930       -0.6543992149
 C         -3.7239963137       -2.9412938068       -0.5515074810
 C         -2.7536323105       -2.0910296238       -0.0278952946
 C         -2.9841458763       -0.6495261672        0.0576892894
 N         -4.2106187800       -0.1896585993       -0.1653124522
 C         -4.3598126750        1.1298257190       -0.0803668961
 C         -5.6900270764        1.6862380822       -0.3268456395
 C         -5.8710801038        3.0664648100       -0.3893616258
 C         -7.1264985462        3.5880072083       -0.6342627978
 C         -8.2084603871        2.7405317593       -0.8160594950
 C         -8.0334583111        1.3667590388       -0.7525058759
 C         -6.7805127966        0.8383325574       -0.5099254065
 N         -3.3727015406        1.9740145823        0.2047858745
 C         -2.1753614175        1.4277286961        0.3968692405
 C         -1.0481706942        2.3167145073        0.6784471902
 C         -1.2771085714        3.6509708515        1.0083882864
 C         -0.2116439724        4.4922236726        1.2631247025
 C          1.0865214148        4.0127081770        1.1798932297
 C          1.3196517292        2.6872307829        0.8479213192
 C          0.2582878079        1.8371939930        0.6039209498
 N         -1.9372129071        0.1216795916        0.3376860729
 C         -1.5333900184       -2.6078815657        0.3978985378
 C          0.7002575524       -3.7332612547        1.7999855445
 C          1.6046256849       -2.7632750143        1.4634572514
 N          2.1766762754       -1.8428674180        2.3216577592
 C          2.9522209881       -0.9787362176        1.6105887475
 C          3.6916911777        0.0997165510        2.0770139415
 C          4.3924218588        0.8317870287        1.1266720140
 C          4.3351988096        0.4807106559       -0.2652137973
 C          3.6070049674       -0.5955977095       -0.7150936388
 C          2.9037146414       -1.3619171871        0.2309549929
 C          2.0765969767       -2.5007964172        0.1531454104
 C          5.1405150316        1.4471182221       -0.9710574918
 C          5.4440651229        1.6039864898       -2.3093934261
 C          6.2653620501        2.6537326391       -2.6930088443
 C          6.7853772533        3.5479654375       -1.7523047717
 C          6.4991150628        3.4155194215       -0.4129218184
 C          5.6712485111        2.3615345230        0.0019025452
 C          5.2168391330        1.9846959913        1.2711512808
 H          0.5751271133       -3.2589459618       -2.8425877444
 H          1.3083339367       -1.7302980422       -2.3464676993
 H         -0.1212701109       -2.3295643779       -1.5129100366
 H          3.4546747333       -2.9538333130       -2.2487817477
 H          2.7473958013       -4.5454684189       -2.5142408301
 H          3.7166046605       -4.2332143844       -1.0690201705
 H          0.5252091131       -5.1528333484       -1.3139787961
 H          1.8489234493       -5.3436884695       -0.1627705280
 H         -0.1141811469       -5.5514603298        1.0748707822
 H         -2.0354066490       -5.8570186673       -0.3350640004
 H         -4.2029330907       -4.9609212093       -1.0597579788
 H         -4.6657667108       -2.5277391223       -0.8751375328
 H         -5.0162757433        3.7094347139       -0.2492140391
 H         -7.2655464871        4.6579924914       -0.6856592218
 H         -9.1890256431        3.1512260035       -1.0086550081
 H         -8.8784430030        0.7087160885       -0.8941345081
 H         -6.6245585764       -0.2277469702       -0.4557367157
 H         -2.2943466572        4.0060216005        1.0636445226
 H         -0.3901282624        5.5252792361        1.5239207522
 H          1.9200100467        4.6728976877        1.3714631993
 H          2.3311706206        2.3190618006        0.7760017389
 H          0.4257026343        0.8035432128        0.3430488679
 H         -0.8068820386       -1.9271680146        0.8130652776
 H          0.3483186108       -3.8594472577        2.8109607273
 H          1.9935040889       -1.7868335718        3.3087021804
 H          3.7108971941        0.3606900235        3.1250439675
 H          3.5699201591       -0.8329711274       -1.7661044260
 H          5.0501855508        0.9222012937       -3.0494379459
 H          6.5106577967        2.7865810059       -3.7368200010
 H          7.4217119179        4.3532022337       -2.0901615047
 H          6.9021478243        4.1069327809        0.3130911306
 H          5.4425115769        2.4765194468        2.1998248071
  78
  -117.446472127100       0.131354361438238      !
 C          0.7930612310       -2.7148193424       -1.9776502346
 C          1.7154629151       -3.4376091290       -0.9851022701
 C          2.9818074006       -3.8819164005       -1.7373172662
 C          1.0543538105       -4.7137401711       -0.4200871397
 C          0.1004099918       -4.5379389282        0.7796560585
 C         -1.2354606620       -3.9560048114        0.3522528118
 C         -2.2081955566       -4.7900440256       -0.1885542571
 C         -3.4238168879       -4.2799641429       -0.6152519365
 C         -3.6866228604       -2.9275599707       -0.5157976436
 C         -2.7216641707       -2.0808927853        0.0237640573
 C         -2.9539626282       -0.6399656108        0.1162108631
 N         -4.1527732884       -0.1711892447       -0.2145887726
 C         -4.3101318843        1.1459953677       -0.1131333674
 C         -5.6029199056        1.7153831088       -0.4929687253
 C         -5.7852919354        3.0968915508       -0.4928238258
 C         -7.0023949267        3.6331609646       -0.8654737235
 C         -8.0446073836        2.7991084205       -1.2397302632
 C         -7.8682156804        1.4240238511       -1.2402794221
 C         -6.6534652727        0.8810616824       -0.8694519933
 N         -3.3603087181        1.9786973155        0.3027349839
 C         -2.1872387975        1.4252988890        0.5956901150
 C         -1.1008570746        2.3062613037        1.0252940938
 C          0.2152608129        1.8488192091        1.0295171297
 C          1.2373653874        2.6943139722        1.4163169272
 C          0.9540188244        3.9916218041        1.8139257911
 C         -0.3548668940        4.4484723515        1.8188444803
 C         -1.3799480474        3.6129022197        1.4204007224
 N         -1.9387226561        0.1225347590        0.5138441753
 C         -1.5081495171       -2.6025561553        0.4634187475
 C          0.7414493068       -3.7156004857        1.8450200760
 C          1.6418574475       -2.7562025120        1.4691062284
 N          2.2284939561       -1.8129796896        2.2921050829
 C          2.9814966683       -0.9612611636        1.5424536667
 C          3.7210871371        0.1354374232        1.9641570168
 C          4.3859052707        0.8549094197        0.9784164565
 C          4.2970628177        0.4706655665       -0.4022886753
 C          3.5760520896       -0.6279790666       -0.8070632331
 C          2.9054325474       -1.3788200722        0.1743028556
 C          2.0865036708       -2.5256949406        0.1434782320
 C          5.0680387608        1.4320775101       -1.1519200005
 C          5.3321866958        1.5624559000       -2.5012830136
 C          6.1243656223        2.6164903030       -2.9315864563
 C          6.6547147817        3.5407088926       -2.0264899469
 C          6.4076518423        3.4348168488       -0.6770335552
 C          5.6093023580        2.3775977830       -0.2154526597
 C          5.1952516105        2.0234718175        1.0738864219
 H          0.5496956445       -3.3724486074       -2.8100864589
 H          1.2878556118       -1.8295436987       -2.3685284840
 H         -0.1303865152       -2.4043709688       -1.4993068810
 H          3.4434543040       -3.0445737728       -2.2492579996
 H          2.7286951406       -4.6392471884       -2.4766434464
 H          3.7098218661       -4.3002688522       -1.0457606374
 H          0.5182940801       -5.2186127481       -1.2259059492
 H          1.8551726999       -5.3776872978       -0.0849559076
 H         -0.1056508164       -5.5408652811        1.1751998419
 H         -2.0124337637       -5.8497185476       -0.2770945463
 H         -4.1667791321       -4.9452812780       -1.0304468654
 H         -4.6227407568       -2.5107881154       -0.8510499783
 H         -4.9607967501        3.7295694872       -0.2035971233
 H         -7.1420834750        4.7043493529       -0.8672352533
 H         -8.9948650261        3.2212576933       -1.5327886458
 H         -8.6817346277        0.7765019645       -1.5332055036
 H         -6.4971011084       -0.1862127593       -0.8636802455
 H          0.4228160359        0.8377165028        0.7143645490
 H          2.2578541951        2.3440167366        1.4026141892
 H          1.7561337380        4.6482474504        2.1183158849
 H         -0.5728146768        5.4595238488        2.1307443080
 H         -2.4043841093        3.9511113869        1.4126774699
 H         -0.7838838549       -1.9240949407        0.8857201169
 H          0.4079482564       -3.8179975667        2.8648419947
 H          2.0639777796       -1.7311073494        3.2806397086
 H          3.7646600355        0.4200780342        3.0055966332
 H          3.5178623236       -0.8931763267       -1.8505084852
 H          4.9295183222        0.8574834037       -3.2143861769
 H          6.3380572101        2.7292746139       -3.9846365166
 H          7.2674778999        4.3483651123       -2.4002625666
 H          6.8183598089        4.1498339537        0.0212500837
 H          5.4385438103        2.5405343674        1.9844559734
  78
  -117.446342744200       0.114547135602215      !
 C          0.8392904387       -2.5643918672       -2.0017927458
 C          1.7294928753       -3.3413493609       -1.0202960180
 C          3.0184381008       -3.7474492630       -1.7560333855
 C          1.0509712961       -4.6466320514       -0.5483654059
 C          0.0729983342       -4.5520358513        0.6412158969
 C         -1.2731585237       -3.9797217118        0.2339316653
 C         -2.2631619740       -4.8199659001       -0.2638069724
 C         -3.4958506948       -4.3162339274       -0.6477109874
 C         -3.7580165433       -2.9633154150       -0.5516217319
 C         -2.7715234417       -2.1099465783       -0.0651031893
 C         -2.9912272766       -0.6659646551        0.0057715003
 N         -4.2297783200       -0.2028861125       -0.1225000041
 C         -4.3630731871        1.1196693134       -0.0560677995
 C         -5.7083184947        1.6791627818       -0.1867235170
 C         -5.8863389864        3.0569795117       -0.2930694526
 C         -7.1575701263        3.5808063911       -0.4258185371
 C         -8.2580753196        2.7380738321       -0.4502343304
 C         -8.0857971336        1.3667030357       -0.3420404287
 C         -6.8172495254        0.8358322326       -0.2123299351
 N         -3.3491870803        1.9635472735        0.1119257749
 C         -2.1426424229        1.4128603291        0.2137048891
 C         -0.9866135756        2.2967600914        0.3610747263
 C          0.3030512584        1.7921135354        0.2027174180
 C          1.3918520637        2.6347518930        0.3151629508
 C          1.2045897619        3.9783424602        0.5998347760
 C         -0.0759662239        4.4831618105        0.7667011210
 C         -1.1700610581        3.6489934397        0.6426402252
 N         -1.9199704343        0.1032467652        0.1768931044
 C         -1.5426226160       -2.6249602589        0.3364312662
 C          0.6690341520       -3.7692736235        1.7607727647
 C          1.5686184619       -2.7831328249        1.4606701794
 N          2.1151835502       -1.8757437652        2.3487049919
 C          2.9003383696       -0.9930859379        1.6719926760
 C          3.6202458241        0.0817597754        2.1760005855
 C          4.3446114517        0.8312695922        1.2584074866
 C          4.3279492835        0.5018159017       -0.1402950061
 C          3.6131920155       -0.5670420765       -0.6286495218
 C          2.8862139009       -1.3507918142        0.2848103828
 C          2.0648501793       -2.4905065205        0.1659628824
 C          5.1490278667        1.4826594073       -0.8077707873
 C          5.4862311768        1.6645425826       -2.1347430280
 C          6.3131020564        2.7237790739       -2.4781309184
 C          6.8048479912        3.6029205663       -1.5086178758
 C          6.4837814918        3.4461344501       -0.1798605854
 C          5.6489801894        2.3826768947        0.1945658503
 C          5.1599453302        1.9840260390        1.4443313246
 H         -0.1074326761       -2.2945249154       -1.5449777211
 H          0.6388634420       -3.1694667788       -2.8839994622
 H          1.3389493390       -1.6512057866       -2.3148252068
 H          2.7903307390       -4.4762039311       -2.5312464451
 H          3.7314651909       -4.1882157945       -1.0629193816
 H          3.4868367289       -2.8880572957       -2.2230126215
 H          0.5305513809       -5.0980542170       -1.3951819399
 H          1.8437824231       -5.3329981355       -0.2408666406
 H         -0.1140034889       -5.5786491258        0.9814564019
 H         -2.0693874120       -5.8802905902       -0.3489894635
 H         -4.2530252578       -4.9872565909       -1.0263802053
 H         -4.7075221644       -2.5512450159       -0.8541223681
 H         -5.0173284685        3.6960575161       -0.2764768250
 H         -7.2945975363        4.6488459048       -0.5117777734
 H         -9.2512806679        3.1504937099       -0.5533441087
 H         -8.9454182704        0.7125816748       -0.3584775072
 H         -6.6627661538       -0.2282365862       -0.1239886571
 H          0.4345542273        0.7440077967       -0.0177775677
 H          2.3886621929        2.2463758331        0.1802016524
 H          2.0604162915        4.6315697048        0.6897819073
 H         -0.2187246358        5.5304993346        0.9903748549
 H         -2.1745579327        4.0238315971        0.7631011802
 H         -0.8054705982       -1.9416902856        0.7280182797
 H          0.3004313413       -3.9194087624        2.7625662397
 H          1.9119751933       -1.8416278082        3.3328328662
 H          3.6104608325        0.3244694379        3.2285019746
 H          3.6044439122       -0.7852702047       -1.6844442499
 H          5.1142338840        0.9947978339       -2.8966815526
 H          6.5846353228        2.8762351718       -3.5126566991
 H          7.4473701631        4.4157350420       -1.8152874609
 H          6.8640445398        4.1266436138        0.5683809538
 H          5.3571905678        2.4620311023        2.3865120835
  78
  -117.444724729500       2.067265048254622E-002 !
 C          0.8091007125       -2.6703646254       -1.9828866472
 C          1.7209054603       -3.4106391337       -0.9934079620
 C          2.9933704415       -3.8454289449       -1.7409085431
 C          1.0526293217       -4.6946669455       -0.4550080252
 C          0.0888199043       -4.5390250588        0.7396601563
 C         -1.2471835545       -3.9576780976        0.3120402606
 C         -2.2198179547       -4.7917109086       -0.2289198277
 C         -3.4373974399       -4.2825842162       -0.6511771845
 C         -3.7020252722       -2.9308351934       -0.5474936485
 C         -2.7359534667       -2.0838946531       -0.0105410354
 C         -2.9682291386       -0.6428539990        0.0802186663
 N         -4.1844992109       -0.1807437226       -0.1902176614
 C         -4.3395645236        1.1372237004       -0.0946328988
 C         -5.6568861274        1.6973318461       -0.3959757615
 C         -5.8432769866        3.0781764047       -0.4101365024
 C         -7.0851309356        3.6047152117       -0.7073182576
 C         -8.1482556702        2.7614994778       -0.9913042770
 C         -7.9679232523        1.3870263888       -0.9771299369
 C         -6.7285778238        0.8537575151       -0.6812583826
 N         -3.3678053150        1.9777664323        0.2482108879
 C         -2.1785887818        1.4303984114        0.4825184748
 C         -1.0680681609        2.3190299970        0.8253545099
 C          0.2433757838        1.8487659309        0.7940815852
 C          1.2885179503        2.7008331786        1.0950706908
 C          1.0336842614        4.0185193013        1.4415990732
 C         -0.2698856939        4.4887326139        1.4815976894
 C         -1.3185549763        3.6458164504        1.1694927396
 N         -1.9348705535        0.1258293082        0.4133549081
 C         -1.5207326665       -2.6045307062        0.4252646070
 C          0.7169204465       -3.7292379157        1.8220632542
 C          1.6220889958       -2.7655375865        1.4697112230
 N          2.2011521992       -1.8356904601        2.3130123548
 C          2.9675433591       -0.9770188395        1.5852949428
 C          3.7075857023        0.1092689750        2.0322593242
 C          4.3913229080        0.8370344435        1.0659377529
 C          4.3183567078        0.4728609271       -0.3214678087
 C          3.5942853640       -0.6141664865       -0.7514979456
 C          2.9067139869       -1.3748156639        0.2103995614
 C          2.0830100628       -2.5172336340        0.1528215636
 C          5.1057426537        1.4393227720       -1.0470250191
 C          5.3880126900        1.5872664674       -2.3909365848
 C          6.1941237076        2.6408369137       -2.7956202304
 C          6.7201690467        3.5474792413       -1.8703734611
 C          6.4549689668        3.4240870007       -0.5258705865
 C          5.6423495782        2.3668096355       -0.0899550402
 C          5.2085224556        1.9977425063        1.1887088580
 H          0.5761135786       -3.3127988272       -2.8299890055
 H          1.3074509933       -1.7777635618       -2.3518807010
 H         -0.1202252187       -2.3694118909       -1.5100456395
 H          3.4593449869       -3.0018766362       -2.2384570311
 H          2.7459398837       -4.5929526703       -2.4919976212
 H          3.7157036544       -4.2730442130       -1.0490488048
 H          0.5230159586       -5.1855601329       -1.2736319615
 H          1.8499183892       -5.3649632782       -0.1242268411
 H         -0.1155575998       -5.5483463864        1.1195763718
 H         -2.0226167880       -5.8508495643       -0.3206336426
 H         -4.1803976701       -4.9480004189       -1.0660856925
 H         -4.6395720565       -2.5144913704       -0.8794077762
 H         -5.0027368671        3.7180258911       -0.1914534284
 H         -7.2279900613        4.6754253282       -0.7205055321
 H         -9.1181442945        3.1760010763       -1.2248608725
 H         -8.7982499285        0.7322962619       -1.1980851455
 H         -6.5688656181       -0.2129272681       -0.6645166868
 H          0.4281405543        0.8213416645        0.5205288538
 H          2.3045591212        2.3399834483        1.0560896707
 H          1.8542909923        4.6803558155        1.6777735843
 H         -0.4655109296        5.5158473359        1.7532786704
 H         -2.3395459965        3.9935579288        1.1912331872
 H         -0.7962277694       -1.9262005017        0.8475930188
 H          0.3716050131       -3.8449370732        2.8365704863
 H          2.0266600393       -1.7688222492        3.3009574469
 H          3.7375907272        0.3807781298        3.0774970516
 H          3.5468966233       -0.8630736843       -1.7994486656
 H          4.9889438797        0.8959910180       -3.1192774926
 H          6.4217436909        2.7675019468       -3.8441377854
 H          7.3442264749        4.3553504651       -2.2244757026
 H          6.8624629187        4.1254149847        0.1880137859
 H          5.4430488605        2.4998934936        2.1097690924
