  78
       -117.93964008
 C          0.7889565833       -2.5271399447       -2.0383797111
 C          1.6484366743       -3.3549728606       -1.0710352183
 C          2.9335547384       -3.7723154098       -1.8072137207
 C          0.9322638513       -4.6556768291       -0.6437767207
 C         -0.0518960932       -4.5739258780        0.5419330637
 C         -1.3828085307       -3.9598113166        0.1455444093
 C         -2.3977054492       -4.7657578189       -0.3585925459
 C         -3.6170916025       -4.2229227338       -0.7317381072
 C         -3.8405397263       -2.8643313881       -0.6190102596
 C         -2.8285750176       -2.0449536653       -0.1265672360
 C         -3.0047559759       -0.5955079773       -0.0423132876
 N         -4.2326794470       -0.0958485185       -0.1286439472
 C         -4.3245208782        1.2295985994       -0.0470954700
 C         -5.6565544454        1.8307017622       -0.1125306080
 C         -5.7977957300        3.2166683648       -0.1420946353
 C         -7.0564533917        3.7818304411       -0.2062371680
 C         -8.1813113295        2.9722089242       -0.2402984364
 C         -8.0457643751        1.5928515572       -0.2102113904
 C         -6.7899736953        1.0209193005       -0.1471901055
 N         -3.2799533711        2.0421528587        0.0823707429
 C         -2.0869621601        1.4563877225        0.1373646383
 C         -0.9006708992        2.3063525913        0.2338642132
 C          0.3698601874        1.7541593855        0.0792976223
 C          1.4863748568        2.5650841663        0.1414592203
 C          1.3464901453        3.9250235200        0.3697886587
 C          0.0853491194        4.4776942001        0.5317637328
 C         -1.0362221552        3.6746401603        0.4600723457
 N         -1.9058658185        0.1402917629        0.0967996941
 C         -1.6138971826       -2.5992861682        0.2655237124
 C          0.5525082427       -3.8373751044        1.6879448721
 C          1.4782139722       -2.8653007775        1.4237758274
 N          2.0376832871       -1.9974330792        2.3426968424
 C          2.8503611240       -1.1150086260        1.6990116975
 C          3.5872313165       -0.0702928772        2.2402987678
 C          4.3379018256        0.6882018238        1.3519318240
 C          4.3324147789        0.3958102758       -0.0549898889
 C          3.6001944351       -0.6433296846       -0.5806889868
 C          2.8433655307       -1.4337529000        0.3022981419
 C          1.9946668135       -2.5483131040        0.1426933414
 C          5.1799229984        1.3785323898       -0.6863941013
 C          5.5341829116        1.5913137840       -2.0043255769
 C          6.3814641899        2.6460698062       -2.3097284387
 C          6.8768927375        3.4900367056       -1.3112439047
 C          6.5389197251        3.3021200801        0.0093295806
 C          5.6831378777        2.2426506906        0.3454671117
 C          5.1723057405        1.8195238583        1.5782633846
 H          0.5962727145       -3.0957253886       -2.9463061110
 H          1.3084867055       -1.6109863805       -2.3074927816
 H         -0.1620567282       -2.2594412626       -1.5895354125
 H          3.4260056574       -2.9119876526       -2.2471303842
 H          2.6941361266       -4.4739979058       -2.6037489015
 H          3.6300050606       -4.2489336597       -1.1209081212
 H          0.4068467249       -5.0671641640       -1.5077329768
 H          1.7049014596       -5.3715495142       -0.3523288117
 H         -0.2635448217       -5.6056971275        0.8507018202
 H         -2.2337744001       -5.8298345861       -0.4585465138
 H         -4.3941239574       -4.8678649122       -1.1154890846
 H         -4.7790477537       -2.4222703312       -0.9134819271
 H         -4.9105911165        3.8297200327       -0.1183582416
 H         -7.1646721407        4.8563139851       -0.2312780674
 H         -9.1646222663        3.4168114663       -0.2905587742
 H         -8.9241156119        0.9645429739       -0.2357753131
 H         -6.6641530814       -0.0501918517       -0.1206993944
 H          0.4644709524        0.6941868893       -0.0980927783
 H          2.4682134085        2.1396792215        0.0094838092
 H          2.2241183458        4.5532733048        0.4180416001
 H         -0.0207927166        5.5378562923        0.7105786403
 H         -2.0261664889        4.0865478394        0.5781220097
 H         -0.8572560461       -1.9425213317        0.6653185502
 H          0.1710791864       -4.0063854899        2.6819419360
 H          1.8244860642       -1.9857699202        3.3251890177
 H          3.5705947636        0.1434742956        3.2989234588
 H          3.5995182899       -0.8326424612       -1.6420804361
 H          5.1592147896        0.9493195174       -2.7884229901
 H          6.6659807423        2.8228139482       -3.3368151370
 H          7.5347674875        4.3010083907       -1.5887471236
 H          6.9222368438        3.9551342197        0.7801435978
 H          5.3668648674        2.2685832703        2.5350197563
  78
       -117.93959009
 C          0.7800980097       -2.5531385374       -2.0397595423
 C          1.6462091082       -3.3684463020       -1.0678624461
 C          2.9269511514       -3.7960985665       -1.8057105052
 C          0.9323605235       -4.6630259410       -0.6191345835
 C         -0.0472780919       -4.5620209528        0.5685477843
 C         -1.3766335857       -3.9485651768        0.1659956912
 C         -2.3861906258       -4.7548155052       -0.3484125803
 C         -3.6039798671       -4.2132261406       -0.7283073015
 C         -3.8313880872       -2.8556605120       -0.6114584932
 C         -2.8249584279       -2.0360220575       -0.1080705234
 C         -3.0074672050       -0.5881358623       -0.0148347829
 N         -4.2331254395       -0.0910952856       -0.1398010179
 C         -4.3323819572        1.2332493100       -0.0526623374
 C         -5.6621928259        1.8294664259       -0.1788249290
 C         -5.8040826888        3.2129555520       -0.2637060187
 C         -7.0608203028        3.7716354854       -0.3922860783
 C         -8.1826760827        2.9582360255       -0.4338421263
 C         -8.0463665860        1.5813094448       -0.3470292958
 C         -6.7924825886        1.0157068134       -0.2216090406
 N         -3.2976229969        2.0477572450        0.1321824841
 C         -2.1061293036        1.4644007150        0.2291517927
 C         -0.9281629328        2.3155518534        0.3944887926
 C          0.3485874852        1.7801956404        0.2323695065
 C          1.4584111827        2.5924043593        0.3619030956
 C          1.3049340124        3.9357031266        0.6674092494
 C          0.0372619725        4.4708603588        0.8380695036
 C         -1.0775912072        3.6674398284        0.6970399967
 N         -1.9173019726        0.1502017898        0.1721339640
 C         -1.6113138148       -2.5890700651        0.2892591935
 C          0.5646321049       -3.8128949893        1.7024610012
 C          1.4905624322       -2.8457784612        1.4211678854
 N          2.0571114116       -1.9671170244        2.3254192128
 C          2.8673808597       -1.0944758192        1.6655304060
 C          3.6129847615       -0.0468242990        2.1890618160
 C          4.3599395677        0.6981394897        1.2859919992
 C          4.3399850998        0.3915196300       -0.1178499100
 C          3.5996260968       -0.6505295540       -0.6256170884
 C          2.8491886790       -1.4295838715        0.2727636103
 C          1.9990431288       -2.5455685650        0.1329658610
 C          5.1886735168        1.3612220083       -0.7668130901
 C          5.5354337472        1.5553795500       -2.0895765161
 C          6.3907298901        2.5981331060       -2.4132216437
 C          6.9014423845        3.4486863714       -1.4281372521
 C          6.5714565337        3.2791671737       -0.1031338182
 C          5.7080073030        2.2319065521        0.2514517976
 C          5.2041441034        1.8262493657        1.4930457176
 H         -0.1610228667       -2.2660988433       -1.5818376007
 H          0.5673738441       -3.1386996722       -2.9321954822
 H          1.3043993341       -1.6483605647       -2.3364784284
 H          2.6829538082       -4.5062658821       -2.5932378399
 H          3.6257302307       -4.2661867620       -1.1173685293
 H          3.4191859739       -2.9418298892       -2.2573202279
 H          0.4035986704       -5.0872657314       -1.4747914102
 H          1.7059800483       -5.3745361345       -0.3200201396
 H         -0.2620677509       -5.5887187495        0.8916965658
 H         -2.2196157731       -5.8183218227       -0.4499025660
 H         -4.3768518769       -4.8582684597       -1.1201802062
 H         -4.7687687472       -2.4143327597       -0.9104850581
 H         -4.9188857600        3.8289257323       -0.2340003718
 H         -7.1698275567        4.8441029770       -0.4616027598
 H         -9.1644782564        3.3978752810       -0.5336442433
 H         -8.9225674039        0.9500567800       -0.3767888479
 H         -6.6659314541       -0.0532826357       -0.1497890386
 H          0.4537345197        0.7326707384       -0.0044265869
 H          2.4453298687        2.1804912028        0.2240625778
 H          2.1770434206        4.5649912361        0.7706421111
 H         -0.0791684321        5.5178588785        1.0779941863
 H         -2.0724902709        4.0662514525        0.8201399501
 H         -0.8581887301       -1.9314720740        0.6941774961
 H          0.1885213597       -3.9693319359        2.7004925376
 H          1.8511748930       -1.9433986426        3.3092854620
 H          3.6055502090        0.1792848828        3.2452730949
 H          3.5891800463       -0.8516352852       -1.6847912564
 H          5.1490738397        0.9077171139       -2.8633657123
 H          6.6699868286        2.7599292251       -3.4442669122
 H          7.5659356526        4.2493312091       -1.7196246245
 H          6.9664092919        3.9375924456        0.6571599333
 H          5.4101734127        2.2839280754        2.4434041916
  78
       -117.93946412
 C          0.7561896304       -2.5908035039       -2.0309988300
 C          1.6353992358       -3.3880893342       -1.0562969257
 C          2.9083518844       -3.8237728243       -1.8024416978
 C          0.9308549188       -4.6767705409       -0.5775353753
 C         -0.0411073923       -4.5525878567        0.6143892529
 C         -1.3677876977       -3.9387085965        0.2041992386
 C         -2.3703930970       -4.7454483236       -0.3226576619
 C         -3.5824274658       -4.2039670534       -0.7207094196
 C         -3.8107089007       -2.8462830289       -0.6085482982
 C         -2.8127285583       -2.0263169205       -0.0887289651
 C         -3.0013116939       -0.5792966180        0.0074505120
 N         -4.2200358625       -0.0844679564       -0.1798838683
 C         -4.3313565041        1.2375589371       -0.0758697308
 C         -5.6542568473        1.8315103687       -0.2681116105
 C         -5.8093203189        3.2161873676       -0.2519050689
 C         -7.0591477144        3.7736719311       -0.4393303935
 C         -8.1610202540        2.9577170896       -0.6440862191
 C         -8.0115806015        1.5795716962       -0.6611277583
 C         -6.7647726998        1.0154023268       -0.4740885884
 N         -3.3130749416        2.0521910053        0.1848425042
 C         -2.1251440670        1.4726712561        0.3333057828
 C         -0.9645378800        2.3286006996        0.5788868320
 C          0.3242445592        1.8072239216        0.4800144641
 C          1.4171740154        2.6260552963        0.6888595271
 C          1.2337024257        3.9620179799        1.0098407006
 C         -0.0465124403        4.4833168481        1.1168541215
 C         -1.1435555829        3.6732305897        0.8974162527
 N         -1.9258513222        0.1606422384        0.2622947344
 C         -1.6046017298       -2.5793353324        0.3255083990
 C          0.5848522527       -3.7905987413        1.7320873889
 C          1.5120907594       -2.8319086860        1.4273711890
 N          2.0982385880       -1.9476582978        2.3135150226
 C          2.9015002855       -1.0852812060        1.6316240492
 C          3.6649919847       -0.0395569618        2.1327017808
 C          4.3969769815        0.6953267545        1.2087594461
 C          4.3440043093        0.3813026292       -0.1923015996
 C          3.5896501575       -0.6614565286       -0.6770033839
 C          2.8563656120       -1.4321744110        0.2423493847
 C          2.0015027939       -2.5473235176        0.1280734387
 C          5.1834054868        1.3421331586       -0.8654745318
 C          5.5033619118        1.5252285387       -2.1965673863
 C          6.3581936376        2.5601806064       -2.5452185607
 C          6.8957438933        3.4135230298       -1.5767356791
 C          6.5932741285        3.2546387363       -0.2439858980
 C          5.7307900334        2.2152301076        0.1357620678
 C          5.2529013245        1.8195142465        1.3905532560
 H         -0.1796691348       -2.2979175823       -1.5664420421
 H          0.5340102311       -3.1916702010       -2.9109174538
 H          1.2748993116       -1.6900347178       -2.3488380810
 H          3.6147798856       -4.2856436507       -1.1161901998
 H          3.3952075941       -2.9743454375       -2.2691237416
 H          2.6559470074       -4.5431851004       -2.5789288484
 H          0.3981510109       -5.1203532374       -1.4208669237
 H          1.7093998349       -5.3788865699       -0.2687743497
 H         -0.2600748426       -5.5728024596        0.9548939507
 H         -2.2024538341       -5.8090178771       -0.4212163998
 H         -4.3494074263       -4.8491263526       -1.1237012953
 H         -4.7432282781       -2.4050896823       -0.9222655479
 H         -4.9395372997        3.8343395619       -0.0944029287
 H         -7.1780419665        4.8472659918       -0.4278223269
 H         -9.1372017248        3.3962679251       -0.7917359206
 H         -8.8720056403        0.9461320761       -0.8206536025
 H         -6.6286433547       -0.0547136357       -0.4820012217
 H          0.4530148267        0.7659301285        0.2280821191
 H          2.4145735231        2.2253500476        0.5995340676
 H          2.0920180391        4.5973828933        1.1735179633
 H         -0.1864806207        5.5246152211        1.3682604607
 H         -2.1475006439        4.0609172089        0.9717048258
 H         -0.8568083658       -1.9218464758        0.7403201987
 H          0.2219705405       -3.9349782528        2.7367692994
 H          1.9070483859       -1.9112242026        3.3000777032
 H          3.6804893888        0.1936782350        3.1872958826
 H          3.5566805991       -0.8698300616       -1.7342830520
 H          5.0961451140        0.8753903795       -2.9578220861
 H          6.6164776899        2.7135348602       -3.5829929182
 H          7.5589187366        4.2078573380       -1.8879597920
 H          7.0097585591        3.9144729125        0.5035520200
 H          5.4836048687        2.2805577585        2.3336502663
  78
       -117.93931285
 C          0.7494552444       -2.6136285895       -2.0274181644
 C          1.6365558751       -3.4046659227       -1.0547594667
 C          2.9023635354       -3.8485372367       -1.8082144344
 C          0.9345363845       -4.6879743930       -0.5588394120
 C         -0.0344330705       -4.5476901676        0.6335716558
 C         -1.3584211453       -3.9317956169        0.2175459277
 C         -2.3530805599       -4.7356334328       -0.3289773476
 C         -3.5616220696       -4.1930271873       -0.7355767340
 C         -3.7947222075       -2.8371341462       -0.6117773356
 C         -2.8052793594       -2.0201530329       -0.0711574024
 C         -2.9997533784       -0.5748527125        0.0369179427
 N         -4.2133920835       -0.0806556502       -0.1828412379
 C         -4.3296425367        1.2406381897       -0.0770969567
 C         -5.6444679823        1.8343321569       -0.3191266317
 C         -5.7904706227        3.2195147466       -0.3599517406
 C         -7.0314083941        3.7764414132       -0.6007102472
 C         -8.1336575345        2.9595716046       -0.7999002299
 C         -7.9935453758        1.5809761651       -0.7579541474
 C         -6.7552441296        1.0172681960       -0.5196357852
 N         -3.3226936644        2.0549557951        0.2250555495
 C         -2.1402351832        1.4756111296        0.4124037768
 C         -0.9921105226        2.3312279403        0.7121878289
 C         -1.1886495923        3.6653629004        1.0628585763
 C         -0.1033295940        4.4752571543        1.3348210020
 C          1.1826616410        3.9645324549        1.2483179037
 C          1.3836206351        2.6390993448        0.8957729159
 C          0.3021375238        1.8201490527        0.6344172255
 N         -1.9348198037        0.1650876094        0.3329415306
 C         -1.6000840768       -2.5744103262        0.3504238502
 C          0.5991107502       -3.7781856263        1.7418174066
 C          1.5289022148       -2.8260491979        1.4241219993
 N          2.1206398583       -1.9342803945        2.2990477651
 C          2.9204252489       -1.0786821732        1.6047088817
 C          3.6850144740       -0.0268687267        2.0910429104
 C          4.4076055151        0.7024607445        1.1550722053
 C          4.3469158879        0.3753514399       -0.2424940652
 C          3.5935896979       -0.6748690023       -0.7122115497
 C          2.8675940406       -1.4382985576        0.2189041561
 C          2.0123694643       -2.5545440396        0.1198546178
 C          5.1790181301        1.3323449478       -0.9298530739
 C          5.4915675755        1.5029877414       -2.2644268881
 C          6.3405041003        2.5377014382       -2.6281998285
 C          6.8792468427        3.4032946318       -1.6713837844
 C          6.5845905624        3.2566100454       -0.3353089388
 C          5.7288597691        2.2173238047        0.0595775837
 C          5.2602273553        1.8317265322        1.3209997648
 H          0.5038218940       -3.2263246737       -2.8928874264
 H          1.2733705115       -1.7248366952       -2.3696087407
 H         -0.1740644762       -2.3011506181       -1.5507678100
 H          3.3878332221       -3.0035602830       -2.2843247992
 H          2.6417309104       -4.5723680054       -2.5779027150
 H          3.6129278580       -4.3079361015       -1.1244986395
 H          0.4003558877       -5.1426672699       -1.3952651790
 H          1.7144070763       -5.3853414226       -0.2427442348
 H         -0.2580527901       -5.5633654806        0.9846164801
 H         -2.1809246852       -5.7976460218       -0.4366736809
 H         -4.3223984221       -4.8356038135       -1.1542445247
 H         -4.7245297369       -2.3947971921       -0.9319200315
 H         -4.9202940706        3.8383724849       -0.2064916288
 H         -7.1432735677        4.8502826937       -0.6352864731
 H         -9.1028234119        3.3979228944       -0.9892059721
 H         -8.8542792550        0.9468281112       -0.9131049075
 H         -6.6263905638       -0.0531406025       -0.4821463894
 H         -2.1968308065        4.0450384455        1.1203453484
 H         -0.2567490557        5.5081639587        1.6116621492
 H          2.0317651245        4.6003137374        1.4533983220
 H          2.3858183206        2.2467235300        0.8213933998
 H          0.4444764193        0.7869278753        0.3574523537
 H         -0.8582699049       -1.9190072726        0.7790341356
 H          0.2402199361       -3.9116784583        2.7494045212
 H          1.9351410118       -1.8895095095        3.2862327919
 H          3.7067535240        0.2166627477        3.1432134263
 H          3.5545833214       -0.8943118897       -1.7670425405
 H          5.0834966383        0.8433394767       -3.0167435364
 H          6.5930803713        2.6810725945       -3.6688776661
 H          7.5369488632        4.1975409645       -1.9939920463
 H          7.0021081118        3.9258766372        0.4031651417
 H          5.4946372955        2.3027120444        2.2582710750
  78
       -117.93908610
 C          0.7470702673       -2.6587187765       -2.0224814300
 C          1.6356527835       -3.4380167511       -1.0418805465
 C          2.8992241756       -3.8938110670       -1.7919507471
 C          0.9322999754       -4.7126241918       -0.5262589698
 C         -0.0316391606       -4.5509529404        0.6675034865
 C         -1.3505078138       -3.9283949004        0.2447325451
 C         -2.3423905755       -4.7282035749       -0.3127088371
 C         -3.5447679126       -4.1809934496       -0.7308725430
 C         -3.7746593512       -2.8246398092       -0.6065410727
 C         -2.7889873043       -2.0116954040       -0.0529228550
 C         -2.9841747304       -0.5667270119        0.0600182466
 N         -4.1870328671       -0.0689516936       -0.2070896699
 C         -4.3082444789        1.2509184238       -0.0910274258
 C         -5.6094632275        1.8497609028       -0.3878140782
 C         -5.7599470759        3.2350320428       -0.3805853859
 C         -6.9866097876        3.7982944843       -0.6734938277
 C         -8.0701565975        2.9875849757       -0.9744447171
 C         -7.9255640227        1.6088395093       -0.9815785381
 C         -6.7015784771        1.0389360419       -0.6900958089
 N         -3.3163225598        2.0603966029        0.2684247820
 C         -2.1425825410        1.4786783328        0.4979590517
 C         -1.0107003751        2.3326188504        0.8586348706
 C          0.2882226900        1.8290030147        0.8242623712
 C          1.3539585546        2.6487575661        1.1422949591
 C          1.1320614414        3.9669609242        1.5089288697
 C         -0.1590244771        4.4701832107        1.5520514678
 C         -1.2280072447        3.6598432945        1.2230385727
 N         -1.9325005533        0.1694788055        0.4088250231
 C         -1.5893171206       -2.5705630143        0.3785959692
 C          0.6131625842       -3.7750104440        1.7647755251
 C          1.5443241284       -2.8296841075        1.4308643435
 N          2.1441166723       -1.9286740323        2.2908157489
 C          2.9352383520       -1.0787739719        1.5794499015
 C          3.7015005976       -0.0192957518        2.0461501435
 C          4.4075013845        0.7056872754        1.0938481841
 C          4.3303407441        0.3655661373       -0.2994229510
 C          3.5799611427       -0.6953345750       -0.7491494900
 C          2.8692918376       -1.4530163752        0.1981919543
 C          2.0164770009       -2.5725968508        0.1196514449
 C          5.1452356719        1.3226269271       -1.0068402904
 C          5.4362992380        1.4844691736       -2.3472697345
 C          6.2709634264        2.5230264447       -2.7324047735
 C          6.8168465706        3.4009208984       -1.7910660915
 C          6.5434812246        3.2631659693       -0.4495968692
 C          5.7020973235        2.2205775710       -0.0333149646
 C          5.2540428743        1.8426851086        1.2378429249
 H          0.5006987711       -3.2813782030       -2.8804927574
 H          1.2697728945       -1.7736278007       -2.3755284537
 H         -0.1759153961       -2.3412597378       -1.5480184944
 H          3.3887745151       -3.0548677572       -2.2744254723
 H          2.6353292133       -4.6226578580       -2.5556851304
 H          3.6076235471       -4.3509561567       -1.1045798990
 H          0.3932246217       -5.1765591612       -1.3543735102
 H          1.7106978821       -5.4085623858       -0.2035362535
 H         -0.2635361875       -5.5605192664        1.0305952650
 H         -2.1723636013       -5.7905206177       -0.4206335550
 H         -4.3031991488       -4.8202261529       -1.1588220095
 H         -4.6998447385       -2.3788753383       -0.9349146029
 H         -4.9039338611        3.8492861371       -0.1489161640
 H         -7.1016188024        4.8724286131       -0.6700898029
 H         -9.0280905030        3.4307893359       -1.2046114608
 H         -8.7717444378        0.9794823778       -1.2157225935
 H         -6.5696312036       -0.0316687141       -0.6898252670
 H          0.4473236157        0.8015906060        0.5349867615
 H          2.3604450607        2.2623007416        1.1009700922
 H          1.9686521787        4.6034324264        1.7583709333
 H         -0.3289831240        5.4975979868        1.8394142638
 H         -2.2397167925        4.0335997495        1.2468996179
 H         -0.8490680719       -1.9180594622        0.8141082654
 H          0.2611502154       -3.8977648646        2.7761471740
 H          1.9677008304       -1.8729618377        3.2791112404
 H          3.7346002986        0.2347427420        3.0956777910
 H          3.5300797104       -0.9262870333       -1.8010877022
 H          5.0221903463        0.8154229363       -3.0878702330
 H          6.5057328877        2.6603378544       -3.7780016496
 H          7.4629611070        4.1978199729       -2.1301528890
 H          6.9663273032        3.9422703565        0.2767374782
 H          5.4980389125        2.3239141681        2.1675712345
  78
       -117.93892090
 C          0.7384211634       -2.6742246805       -2.0207826960
 C          1.6322935901       -3.4478246478       -1.0405389770
 C          2.8919858966       -3.9074927894       -1.7944681082
 C          0.9321355657       -4.7197119511       -0.5140780939
 C         -0.0256781832       -4.5506532128        0.6835799893
 C         -1.3454994413       -3.9286847616        0.2629179818
 C         -2.3384237925       -4.7293975838       -0.2913554501
 C         -3.5410706136       -4.1826125903       -0.7093592170
 C         -3.7701066016       -2.8258170186       -0.5882496648
 C         -2.7838875541       -2.0120512472       -0.0366875519
 C         -2.9792868001       -0.5670812918        0.0761326864
 N         -4.1742444968       -0.0661864404       -0.2196688191
 C         -4.2968247105        1.2532309037       -0.1004849002
 C         -5.5870943586        1.8571946644       -0.4326136864
 C         -5.7397378469        3.2420189453       -0.3997261435
 C         -6.9552703401        3.8112679624       -0.7256379088
 C         -8.0254110823        3.0071225586       -1.0858758092
 C         -7.8786105589        1.6289629069       -1.1192726238
 C         -6.6657849928        1.0530326676       -0.7946286696
 N         -3.3148563363        2.0588849401        0.2933973421
 C         -2.1479687695        1.4746060640        0.5493035223
 C         -1.0270124499        2.3256582651        0.9491475468
 C          0.2747619465        1.8290301509        0.9296758863
 C          1.3297561529        2.6468547171        1.2862649377
 C          1.0939142945        3.9556963377        1.6768450602
 C         -0.2003279146        4.4517849331        1.7052325035
 C         -1.2583230354        3.6437021275        1.3374628122
 N         -1.9355726399        0.1662853745        0.4541967189
 C         -1.5839987314       -2.5706674281        0.3948942946
 C          0.6256612270       -3.7697921501        1.7734798423
 C          1.5548793043       -2.8262196314        1.4293701849
 N          2.1591310822       -1.9201975690        2.2809009615
 C          2.9440907581       -1.0725786402        1.5599753040
 C          3.7111387248       -0.0090098674        2.0160527230
 C          4.4084976964        0.7132289514        1.0552255769
 C          4.3227282805        0.3657911593       -0.3355650499
 C          3.5724976252       -0.6996114698       -0.7747319790
 C          2.8700044920       -1.4541209840        0.1811745271
 C          2.0188827273       -2.5757134551        0.1140128976
 C          5.1306691111        1.3209347488       -1.0534535507
 C          5.4128801354        1.4758886864       -2.3965693718
 C          6.2425043384        2.5143088176       -2.7928190055
 C          6.7921427188        3.3987338409       -1.8598775914
 C          6.5276225950        3.2678384245       -0.5159348553
 C          5.6914842931        2.2255408367       -0.0884887452
 C          5.2527953266        1.8532408595        1.1875652398
 H          0.4819327904       -3.3037734827       -2.8707586976
 H          1.2616127661       -1.7946557257       -2.3866229417
 H         -0.1790181006       -2.3485644816       -1.5411404028
 H          3.3822199330       -3.0699712565       -2.2785756458
 H          2.6234767501       -4.6358094218       -2.5570242028
 H          3.6012832549       -4.3663444669       -1.1092192489
 H          0.3888862834       -5.1884941736       -1.3367286178
 H          1.7122045468       -5.4137688569       -0.1912814915
 H         -0.2570588222       -5.5579855393        1.0530980572
 H         -2.1690995800       -5.7920941165       -0.3966442068
 H         -4.3003511217       -4.8225543304       -1.1347893520
 H         -4.6954298998       -2.3804796474       -0.9167834383
 H         -4.8939382421        3.8512190390       -0.1218623867
 H         -7.0720108616        4.8848470944       -0.7015056055
 H         -8.9746058590        3.4550784877       -1.3418516020
 H         -8.7142655306        1.0047624037       -1.4006699117
 H         -6.5324668490       -0.0171577816       -0.8143182340
 H          0.4449898311        0.8090207954        0.6212731709
 H          2.3388283471        2.2659601943        1.2558312930
 H          1.9219433491        4.5908573594        1.9563864258
 H         -0.3812091042        5.4719897792        2.0110396920
 H         -2.2721436544        4.0123821526        1.3482742093
 H         -0.8431650404       -1.9175466755        0.8284641990
 H          0.2795593346       -3.8875604442        2.7874943877
 H          1.9879560345       -1.8587941364        3.2697846082
 H          3.7509494579        0.2499663621        3.0642299787
 H          3.5166017512       -0.9363832427       -1.8250833137
 H          4.9958850573        0.8015240685       -3.1307582173
 H          6.4707728857        2.6459970415       -3.8405974814
 H          7.4340644426        4.1953412671       -2.2075189482
 H          6.9532554879        3.9522690475        0.2037964366
 H          5.5018558234        2.3400860899        2.1130648396
  78
       -117.93871105
 C          0.7301263088       -2.7009693988       -2.0203887023
 C          1.6296690341       -3.4639839140       -1.0370102710
 C          2.8869771581       -3.9283407654       -1.7922676468
 C          0.9335657498       -4.7318152863       -0.4958433730
 C         -0.0201271096       -4.5514425965        0.7034206724
 C         -1.3388240435       -3.9279550723        0.2813152841
 C         -2.3307343054       -4.7272893902       -0.2767936232
 C         -3.5310862810       -4.1787544536       -0.6989928361
 C         -3.7591696599       -2.8218415535       -0.5776646266
 C         -2.7747011737       -2.0096626090       -0.0206147308
 C         -2.9699684439       -0.5649433016        0.0953030140
 N         -4.1549548374       -0.0597352758       -0.2316507706
 C         -4.2785465917        1.2592046733       -0.1085543892
 C         -5.5546839882        1.8682366641       -0.4831629129
 C         -5.7012243620        3.2538164247       -0.4603637991
 C         -6.9025878740        3.8276612485       -0.8280869992
 C         -7.9645946675        3.0273261161       -1.2199079476
 C         -7.8238646861        1.6483291430       -1.2430234821
 C         -6.6250192090        1.0678863513       -0.8772433031
 N         -3.3090929061        2.0598904017        0.3245333414
 C         -2.1518834700        1.4714028546        0.6121342697
 C         -1.0447214577        2.3165517719        1.0602360313
 C          0.2590851277        1.8251000962        1.0612538534
 C          1.3012388060        2.6371836768        1.4657402039
 C          1.0500452649        3.9345638898        1.8841802616
 C         -0.2465822083        4.4250834304        1.8923175915
 C         -1.2914095650        3.6231920958        1.4763460459
 N         -1.9368676764        0.1641821317        0.5091993446
 C         -1.5768050499       -2.5699379314        0.4143371891
 C          0.6378749202       -3.7639842048        1.7846768943
 C          1.5642650328       -2.8221137395        1.4280652029
 N          2.1719476841       -1.9083557970        2.2688428301
 C          2.9496364833       -1.0640256191        1.5362300674
 C          3.7157423528        0.0058891425        1.9788809084
 C          4.4027633588        0.7242803512        1.0076838299
 C          4.3093283706        0.3656600238       -0.3795956463
 C          3.5616801888       -0.7069657049       -0.8052894153
 C          2.8680644363       -1.4564870912        0.1609854242
 C          2.0198404621       -2.5810444927        0.1080385988
 C          5.1078243222        1.3191644714       -1.1102785032
 C          5.3804623478        1.4652344804       -2.4563413757
 C          6.2013204376        2.5054164012       -2.8661103291
 C          6.7519263010        3.4002644158       -1.9437599957
 C          6.4970010511        3.2782240958       -0.5971327083
 C          5.6697714153        2.2344951067       -0.1561657001
 C          5.2417202532        1.8696804609        1.1255990853
 H          0.4730278733       -3.3380208533       -2.8646155470
 H          1.2491802241       -1.8224082772       -2.3945993905
 H         -0.1868120270       -2.3747178830       -1.5400447284
 H          3.3721208569       -3.0948010448       -2.2884440063
 H          2.6171947866       -4.6663533099       -2.5451115187
 H          3.6012427154       -4.3769750584       -1.1053714455
 H          0.3877259459       -5.2090326697       -1.3118842941
 H          1.7156267330       -5.4218444416       -0.1692090107
 H         -0.2536105815       -5.5551699384        1.0813017411
 H         -2.1621349363       -5.7900552252       -0.3825063841
 H         -4.2894186400       -4.8175151912       -1.1278790319
 H         -4.6828826261       -2.3753562637       -0.9090478873
 H         -4.8617461937        3.8599481823       -0.1576982004
 H         -7.0144867796        4.9019932412       -0.8122768401
 H         -8.9024660575        3.4788462440       -1.5090612655
 H         -8.6527404446        1.0271376389       -1.5496004751
 H         -6.4963645315       -0.0030335375       -0.8889208300
 H          0.4416056053        0.8143738250        0.7298210812
 H          2.3123609373        2.2607985261        1.4496287497
 H          1.8677123903        4.5649586917        2.2023339492
 H         -0.4394804634        5.4360827360        2.2204616693
 H         -2.3067079332        3.9879563936        1.4708174885
 H         -0.8368499537       -1.9176732280        0.8504862784
 H          0.2979031669       -3.8747647130        2.8014815681
 H          2.0057946434       -1.8388162511        3.2580479541
 H          3.7626530393        0.2718132094        3.0251118235
 H          3.5006688032       -0.9530427443       -1.8532480649
 H          4.9624296139        0.7829972813       -3.1825956003
 H          6.4219209003        2.6302453453       -3.9163731512
 H          7.3868328403        4.1978949080       -2.3017718164
 H          6.9233878589        3.9705407670        0.1145009414
 H          5.4948044214        2.3649250290        2.0455789247
