  91
       -136.01725023
 C         -2.5593087357        6.1945060049       -1.8726049204
 C         -2.0620067330        5.5621142071       -0.5699331526
 C         -0.5334789736        5.7015303967       -0.5235336850
 C         -2.6902788511        6.3283462927        0.6028639537
 C         -2.4273558860        4.0911832156       -0.4548903514
 C         -3.1288829753        3.4041577806       -1.4413439219
 C         -3.4337962211        2.0630162110       -1.3080840780
 C         -3.0451944420        1.3639249349       -0.1680244037
 N         -3.3122121646       -0.0023438443       -0.0319022088
 C         -2.3321719475       -0.9987209131        0.1614006371
 C         -0.9387344070       -0.8513009835        0.0848653158
 C         -0.1357010932       -1.9266754347        0.5731562282
 C          1.2239206137       -1.8689668074        0.5545940543
 C          1.8837425216       -0.7306187060        0.0452045668
 N          3.2885563448       -0.6532806195        0.0466381647
 C          4.0361366150       -1.6139956819       -0.6180672178
 C          3.4246424769       -2.6184278308       -1.3686883168
 C          4.1760471993       -3.5973303562       -1.9901796629
 C          5.5572573472       -3.5898023779       -1.8795849441
 C          6.1871712129       -2.5702260856       -1.1884482037
 C          5.4471708167       -1.5629872300       -0.5767249279
 N          6.0738145808       -0.5066200091        0.0607193177
 C          7.4941137430       -0.4254236650        0.0566925875
 C          8.1591350912       -0.0007034306       -1.0877853095
 C          9.5398871900        0.0775155094       -1.0884746321
 C         10.2577044793       -0.2639602597        0.0473406796
 C          9.5921731891       -0.6866450331        1.1875201133
 C          8.2116723061       -0.7699173565        1.1964416750
 C          5.3335009057        0.4787462279        0.6893624448
 C          5.9578811244        1.5570968063        1.3089448085
 C          5.2177040227        2.5086255116        1.9877418054
 C          3.8410707203        2.3780644473        2.0746003951
 C          3.2025178964        1.3263164671        1.4459330456
 C          3.9241386752        0.3840008037        0.7124965440
 C          1.1118514622        0.3175000603       -0.4863913122
 C         -0.2518743590        0.2610288125       -0.4830330183
 N         -2.9124557641       -2.1942291807        0.3691229863
 C         -4.2231684480       -2.0057427158        0.2674593072
 C         -5.2496209759       -2.9926072837        0.3495522917
 C         -4.9305969854       -4.3407804629        0.5214144956
 C         -5.9234864798       -5.2938823979        0.5613019629
 C         -7.2487443591       -4.8978624768        0.4205275652
 C         -7.5750199412       -3.5683796955        0.2559582778
 C         -6.5929702325       -2.5677061731        0.2233921693
 C         -6.9043805123       -1.1567369151        0.0900923968
 C         -8.2240903354       -0.6992848256        0.0551599158
 C         -8.5395709938        0.6394168212       -0.0244177615
 C         -7.5210286085        1.5935260598       -0.0491652960
 C         -6.2126117396        1.1938402826       -0.0270937866
 C         -5.8598817528       -0.1738771245        0.0177597933
 C         -4.5323878383       -0.6371750916        0.0353192356
 C         -2.3451689967        2.0399714590        0.8308713955
 C         -2.0463603094        3.3770574172        0.6809804546
 H         -2.2736003653        7.2442816294       -1.8980757201
 H         -3.6430403916        6.1401883098       -1.9450002866
 H         -2.1184540053        5.7062402796       -2.7387011198
 H         -0.0805632380        5.1439009501       -1.3408688332
 H         -0.1289501917        5.3229079711        0.4110867954
 H         -0.2489594248        6.7473639927       -0.6197684997
 H         -3.7718776718        6.2105383231        0.5919315261
 H         -2.3185672329        5.9672257174        1.5577251756
 H         -2.4577774700        7.3884730985        0.5259581479
 H         -3.4440522413        3.9055294157       -2.3416717660
 H         -3.9706822270        1.5455631276       -2.0901535962
 H         -0.6515569753       -2.7793206069        0.9830273984
 H          1.8151672877       -2.6764089803        0.9627087283
 H          2.3516539980       -2.6232863025       -1.4685197781
 H          3.6788614242       -4.3658928460       -2.5605765927
 H          6.1483243652       -4.3632484663       -2.3441181399
 H          7.2637299255       -2.5489073161       -1.1234569934
 H          7.5890368755        0.2629287040       -1.9663144789
 H         10.0567315783        0.4086828115       -1.9765489754
 H         11.3350826059       -0.2004296597        0.0439878973
 H         10.1502222685       -0.9544498269        2.0719589205
 H          7.6822139060       -1.0982120827        2.0785257012
 H          7.0319734208        1.6446817398        1.2610402187
 H          5.7206636220        3.3371023846        2.4611134660
 H          3.2602300156        3.0954404932        2.6327481339
 H          2.1325950498        1.2247181518        1.5254985011
 H          1.6180456091        1.1578747759       -0.9412009354
 H         -0.8057987277        1.0462908332       -0.9692255971
 H         -3.8882784324       -4.6039222109        0.6138360129
 H         -5.6791830941       -6.3374054030        0.6945267868
 H         -8.0353584710       -5.6389923067        0.4408165274
 H         -8.6173761010       -3.3130123792        0.1479292909
 H         -9.0369999424       -1.4064810088        0.1027586502
 H         -9.5733124128        0.9508862584       -0.0506569274
 H         -7.7661611184        2.6453180667       -0.0808343759
 H         -5.4327339746        1.9376917725       -0.0229256345
 H         -2.0379384065        1.5033070091        1.7163998133
 H         -1.5041560748        3.8708225364        1.4732195368
