90
 energy: -137.216828096291 gnorm: 0.000129228085 xtb: 6.7.1 (edcfbbe)
C            0.33705344526511       -5.69698738618239        0.63100826511425
C           -0.88433188732745       -5.06491011843874        0.42012513059325
C           -0.90941578554220       -3.72912158861647       -0.02271458246042
C           -2.18630834783900       -3.04215214635815       -0.25823162021852
C           -3.28691028956609       -3.74243512260478       -0.75699057302590
C           -4.51199449806221       -3.13003561406754       -0.94495163461424
C           -4.64162400894265       -1.78592436543733       -0.63521572851741
C           -3.53256894854924       -1.06459777620954       -0.16395670220046
C           -2.31893599132912       -1.67901989943500        0.03294132744855
C           -3.90527577349620        0.37562961485629        0.08140043228609
C           -3.60345334217376        0.91025575093907        1.45821728719847
C           -3.93772022824135        0.36906194742723        2.68000202430724
C           -3.57539610021684        1.05816892194646        3.82981788128437
C           -2.90165876404627        2.26763165386097        3.75145494169003
C           -2.56709741160749        2.81738066051178        2.52437279056174
C           -2.91713679040421        2.13099756120242        1.37362304316401
C           -2.69040834126393        2.43563661787316       -0.03001822777319
C           -2.09945344431139        3.52692471849587       -0.64554422533129
C           -2.01295691688115        3.54298426530793       -2.02912472199383
C           -2.49895405968242        2.48669778497255       -2.78487110909719
C           -3.11146721606495        1.39952521604427       -2.17600318969533
C           -3.20830560137035        1.38556790439787       -0.80205073400661
C           -5.38644568136326        0.36916363493892       -0.23520516885685
C           -6.28109308378024        1.41298665461032       -0.15676409513430
C           -7.60017193801888        1.18076418471700       -0.52314473147691
C           -8.00531930808160       -0.07044863136868       -0.96370626628955
C           -7.10671648917417       -1.12157338254698       -1.04600021504809
C           -5.78949416000629       -0.89848505950346       -0.67818380077920
C            0.28266449707136       -3.06779600044523       -0.21727520488108
C            1.54518409199575       -3.66670488639773        0.03901238376100
C            2.74393088493156       -2.92155120979998       -0.05394257158231
C            4.05215656310614       -3.53827671354414       -0.02886915154257
C            5.20497199944353       -2.82760930592522       -0.00974481664993
C            5.15827756701349       -1.40265037931156       -0.00501316811692
C            3.86119371785678       -0.77824276435937       -0.08076526618058
C            2.71563095541764       -1.48257915503189       -0.11600227140441
C            4.01830596966753        0.72889279485475       -0.07220830980392
C            3.15656113247929        1.31594959668188        1.01875582154430
C            3.27949725866732        1.17197533328669        2.38334474843896
C            2.29174549859582        1.71214158997640        3.19614981682299
C            1.19703789438020        2.36440994583080        2.64825067391620
C            1.07287235843460        2.51647553464901        1.27677335876855
C            2.06388227655228        1.99700775797386        0.46058986396904
C            2.21835185456021        2.01024257034273       -0.98512406148130
C            1.43840690282219        2.57361839460070       -1.98087107589246
C            1.85413015365413        2.45016613937878       -3.29680158052301
C            3.02552098225199        1.77908033687791       -3.61503882615633
C            3.80495714808940        1.19913960093567       -2.62296842252572
C            3.39454840984940        1.31983179573423       -1.31350507370889
C            5.50829487149129        0.88151449222990        0.05312623723954
C            6.24551502881372        2.03010345401330        0.12895095798763
C            7.63727460316902        1.93372002345329        0.23002562338468
C            8.26669604278254        0.68521030385778        0.25083530758069
C            7.54524052725279       -0.48057120775520        0.17556171974618
C            6.13836633504880       -0.40646037583345        0.07496818449433
C            1.52302800238188       -5.03413239375255        0.44613916680705
H            0.34759096770808       -6.72626121866552        0.96120870268760
H           -1.80579850996024       -5.59080183117476        0.61416626119017
H           -3.17384655172252       -4.78529515044425       -1.01447390412192
H           -5.35274254694674       -3.69258721481807       -1.32331303650046
H           -1.48678211381330       -1.12151166797035        0.43805202361749
H           -4.46737780663319       -0.57058413765615        2.74124367370437
H           -3.82417039671384        0.64825142365967        4.79765107574095
H           -2.63562426325102        2.78763518151105        4.66056900606453
H           -2.04653106082005        3.76229068111065        2.46831812119027
H           -1.72427288795208        4.35641784260816       -0.06278435664261
H           -1.56536951884978        4.39173100798339       -2.52702086130055
H           -2.41150604076920        2.51619936332962       -3.86090437885873
H           -3.50885965890113        0.58643913084024       -2.76607218431577
H           -5.96441154809611        2.38829734702126        0.18381855624169
H           -8.31907399006580        1.98471630208002       -0.46527601066868
H           -9.03654185731335       -0.22646019572023       -1.24549092006459
H           -7.42683269349270       -2.09425351221719       -1.38907196506536
H            0.24782090473489       -2.06960771500704       -0.62244023916810
H            4.10780905987594       -4.61537412150924       -0.05360198112489
H            6.16293159206554       -3.32654781433844        0.00033732180302
H            1.77472066106322       -0.95684719496679       -0.13608239697634
H            4.12243955432005        0.64742943736232        2.80963457304146
H            2.37101248717756        1.61254964765372        4.26879888927641
H            0.42937373959345        2.75451086180969        3.30047388920284
H            0.21708397821472        3.01700737183185        0.85069836087848
H            0.52327344482439        3.09122188011267       -1.73788025098112
H            1.25781662988790        2.88377683837468       -4.08651068709548
H            3.33268530658702        1.70137395149422       -4.64773514324630
H            4.71216999349131        0.66730619551512       -2.87104589106855
H            5.76442278229021        2.99747016782269        0.11190244965742
H            8.23208736232834        2.83207665927374        0.29183758424140
H            9.34387588410588        0.64445933998277        0.32838432135564
H            8.03488758973337       -1.44250560414150        0.19252599130247
H            2.44729925710764       -5.54735355673737        0.65618282770924
