  90
       -137.31097128
 C          0.0108444994       -5.4771507051        0.0160919424
 C         -1.1362564249       -4.7893232560        0.3665006256
 C         -1.1497786244       -3.3963964204        0.3534843701
 C         -2.3488273056       -2.6444014989        0.7505713861
 C         -3.0955848444       -3.0493519960        1.8575829595
 C         -4.1973625589       -2.3327541511        2.2889716534
 C         -4.5624032212       -1.1899565639        1.5962211863
 C         -3.8278868577       -0.7908242814        0.4697571847
 C         -2.7303004406       -1.5008543100        0.0446694846
 C         -4.4062181473        0.4715272462       -0.1210416810
 C         -3.4035382351        1.5916571535       -0.2471858650
 C         -2.6264180522        2.1580056738        0.7391148127
 C         -1.7623895929        3.1871831479        0.3905075424
 C         -1.6854409563        3.6361535888       -0.9190158834
 C         -2.4610523078        3.0649984561       -1.9148114347
 C         -3.3224475494        2.0349814030       -1.5752323048
 C         -4.2404088454        1.2459186108       -2.3814879114
 C         -4.5392474795        1.2885231960       -3.7332636397
 C         -5.4751993450        0.3978517287       -4.2341866946
 C         -6.1017358796       -0.5193926327       -3.4039604170
 C         -5.8079256590       -0.5676233527       -2.0477967126
 C         -4.8780260860        0.3165372044       -1.5472132653
 C         -5.5411152822        0.7658329071        0.8307555697
 C         -6.4261338929        1.8207401416        0.8047401412
 C         -7.4083089406        1.8833250726        1.7843168879
 C         -7.4980278097        0.9056920647        2.7638782889
 C         -6.6095065432       -0.1571687294        2.7925818105
 C         -5.6258823352       -0.2254910625        1.8195478634
 C          0.0042419515       -2.7164745717       -0.0205849749
 C          1.1656513815       -3.3986648889       -0.3675419512
 C          2.3789234526       -2.6577735629       -0.7409906629
 C          3.2015172107       -3.1197577225       -1.7695536541
 C          4.3503817545       -2.4433732875       -2.1383340044
 C          4.6842942338       -1.2791019900       -1.4659615363
 C          3.8584645455       -0.8064805647       -0.4351333335
 C          2.7181237032       -1.4805672140       -0.0683720121
 C          4.4079608014        0.4757616621        0.1395125006
 C          4.6692634431        0.4316902571        1.6248943845
 C          5.4646702017       -0.4466976036        2.3270512966
 C          5.5705565990       -0.2875158985        3.7023759027
 C          4.8940493594        0.7329385690        4.3535778683
 C          4.0926348509        1.6179103594        3.6502333924
 C          3.9798167511        1.4636084398        2.2784671588
 C          3.2285250085        2.2165792851        1.2865104175
 C          2.4015225841        3.3207624065        1.4097075096
 C          1.8101990093        3.8369866712        0.2681672872
 C          2.0294114599        3.2579817540       -0.9724527220
 C          2.8589458314        2.1527461246       -1.1041646920
 C          3.4568675544        1.6434713561        0.0273623043
 C          5.6638439185        0.6669577698       -0.6781139585
 C          6.5944127572        1.6783536144       -0.5900853620
 C          7.6824227780        1.6517656822       -1.4524383397
 C          7.8277558115        0.6324265407       -2.3814964293
 C          6.8929698076       -0.3862335507       -2.4728947991
 C          5.8057028940       -0.3674268322       -1.6146784518
 C          1.1563843407       -4.7922193446       -0.3446108797
 H          0.0137789419       -6.5576277575        0.0289879271
 H         -2.0311025845       -5.3315565124        0.6343579286
 H         -2.7850092305       -3.9269848950        2.4058556000
 H         -4.7536715266       -2.6541675701        3.1571387719
 H         -2.1766410207       -1.1867643235       -0.8283998074
 H         -2.6883263588        1.8083913021        1.7595781626
 H         -1.1424898582        3.6410754062        1.1491105588
 H         -1.0116953833        4.4430421497       -1.1665251584
 H         -2.3951140650        3.4161210473       -2.9341037976
 H         -4.0542368475        2.0009535738       -4.3840834350
 H         -5.7214034641        0.4176740723       -5.2859919831
 H         -6.8285528497       -1.2033886872       -3.8168388697
 H         -6.2972034671       -1.2803877866       -1.3997383794
 H         -6.3561844112        2.5813417187        0.0405691272
 H         -8.1109435381        2.7035646205        1.7834269264
 H         -8.2711438414        0.9754380110        3.5153484800
 H         -6.6828797850       -0.9158146910        3.5577730992
 H         -0.0018437812       -1.6360825562       -0.0367670448
 H          2.9212986055       -4.0166547442       -2.3026217172
 H          4.9721063392       -2.8167985785       -2.9386466007
 H          2.1041779540       -1.1166761877        0.7426947306
 H          5.9925114096       -1.2406830196        1.8188772847
 H          6.1889249535       -0.9658598671        4.2717543110
 H          4.9937535239        0.8385484286        5.4241352927
 H          3.5678751152        2.4110530191        4.1621543079
 H          2.2248585094        3.7731654811        2.3745269077
 H          1.1717716581        4.7049803723        0.3453406140
 H          1.5533523544        3.6726240606       -1.8485010265
 H          3.0347696602        1.7039934199       -2.0711569875
 H          6.4802510019        2.4723949511        0.1336800727
 H          8.4245760068        2.4346793501       -1.3988918116
 H          8.6822989856        0.6335574198       -3.0425832435
 H          7.0107155619       -1.1783021163       -3.1975646632
 H          2.0556054614       -5.3385483370       -0.5879546543
