90
 energy: -137.311022363124 gnorm: 0.000056029758 xtb: 6.7.1 (edcfbbe)
C            0.01272683015301       -5.46759227761391        0.03922364477880
C           -1.13493215703821       -4.78138284893925        0.39084982436015
C           -1.15272497569788       -3.38855272855846        0.37152010426612
C           -2.35477657302742       -2.63932229331427        0.76455755165321
C           -3.10544126748962       -3.04441720486864        1.86893440111153
C           -4.21307298961784       -2.33200177853271        2.29234917218836
C           -4.57966867733296       -1.19252167943238        1.59488759311431
C           -3.83960791046269       -0.79208621523681        0.47263937650762
C           -2.73710319798685       -1.49854859469745        0.05467532400346
C           -4.41588867966680        0.46988977713509       -0.12099278791515
C           -3.41022721850175        1.58906209517664       -0.23310526721610
C           -2.64115537992010        2.14960676077187        0.76281355271516
C           -1.76756957072382        3.17450334182898        0.42552939686567
C           -1.67415665566994        3.62551481458237       -0.88223224195747
C           -2.44186863719118        3.06030978859564       -1.88751589313114
C           -3.31200568562997        2.03390704217364       -1.55943207385205
C           -4.22225974162500        1.24831108669988       -2.37775784313815
C           -4.50402901015856        1.29319193409099       -3.73312423568979
C           -5.43503859205350        0.40474973165492       -4.24696873793578
C           -6.07332566496734       -0.51261507322024       -3.42589553864264
C           -5.79661226643304       -0.56314960414499       -2.06619613659642
C           -4.87170102099738        0.31885174862744       -1.55267650039592
C           -5.55956788311929        0.75969176390883        0.82142322036976
C           -6.44832745703423        1.81124339414683        0.78848902002880
C           -7.43918658022494        1.86953812182318        1.75959276032877
C           -7.53374226559643        0.89093914594247        2.73768995812424
C           -6.64141061626779       -0.16848265821329        2.77348119682186
C           -5.64887832286115       -0.23229726607051        1.80925933389461
C           -0.00165417498327       -2.70700054634491       -0.00894015846699
C            1.15976418459873       -3.38762724488751       -0.35866821805647
C            2.36976613548916       -2.64592254374265       -0.74130936843005
C            3.18451675914658       -3.10803616079500       -1.77600645811110
C            4.33157848909524       -2.43271040070818       -2.15225271724787
C            4.67204800997317       -1.26988700685018       -1.48064338804155
C            3.85353842551000       -0.79670603935039       -0.44428005887650
C            2.71454261160534       -1.46934293440819       -0.07053825182458
C            4.41169437217921        0.48178018920703        0.13108839153003
C            4.68175305951114        0.42409232369266        1.61454729046149
C            5.48165049336997       -0.46048488047380        2.30372386486107
C            5.59205215641302       -0.31687429126686        3.68039220150068
C            4.91441804032692        0.69362579453296        4.34583023531228
C            4.10874160691597        1.58493132518214        3.65544981475333
C            3.99293395361786        1.44730979405070        2.28213647640625
C            3.23979316181562        2.21239631630658        1.30088938011559
C            2.41706869458708        3.31808118062236        1.43858760321408
C            1.82676503393005        3.85095312530680        0.30404431253844
C            2.04363445644911        3.28727269181516       -0.94402242569575
C            2.86793948488658        2.17984545823920       -1.09009213974008
C            3.46405810354918        1.65348865006388        0.03456613246881
C            5.66168196705618        0.67210245734553       -0.69523577273511
C            6.59427721202235        1.68212008184347       -0.61258063764106
C            7.67574449908209        1.65548611249214       -1.48311488467114
C            7.81296526405831        0.63710912337622       -2.41446519326260
C            6.87590961503141       -0.37992692594964       -2.50077971641581
C            5.79467371837737       -0.36060736194233       -1.63498112309520
C            1.15449970420414       -4.78105503268509       -0.33012439415460
H            0.01866625138053       -6.54799511398912        0.05684792369904
H           -2.02728922536528       -5.32505555077456        0.66398704504687
H           -2.79414861596767       -3.91926006028197        2.42123417925839
H           -4.77311659326712       -2.65443143886659        3.15772638613661
H           -2.18042265228650       -1.18371884024925       -0.81619374699204
H           -2.71630504446915        1.79845921796520        1.78186944975748
H           -1.15283564900360        3.62348807753227        1.19131093769110
H           -0.99310923046526        4.42895789323848       -1.12072587345185
H           -2.36224887374050        3.41229155986516       -2.90551732498960
H           -4.01005126269273        2.00605313237189       -4.37673495495249
H           -5.66804802302460        0.42646905136557       -5.30172970050911
H           -6.79557466177263       -1.19527640232777       -3.84893056707808
H           -6.29503463702191       -1.27613508127700       -1.42542714395873
H           -6.37499962503011        2.57240468267942        0.02519336167805
H           -8.14542316158049        2.68672972579321        1.75257331645905
H           -8.31407883669926        0.95683648908720        3.48200331227437
H           -6.71864141105315       -0.92788894121559        3.53752595483960
H           -0.00997303777335       -1.62668344597516       -0.02885805169050
H            2.89967339335747       -4.00451812438466       -2.30733414592469
H            4.94720416629481       -2.80614438603722       -2.95727947678707
H            2.10615938728699       -1.10531757643268        0.74467585348434
H            6.01044073079913       -1.24666124491806        1.78447609662542
H            6.21411655100006       -1.00010034540076        4.23973759055320
H            5.01690563025944        0.78648839136606        5.41735541187832
H            3.58305641833740        2.37022941560744        4.17833971700790
H            2.24294828335812        3.75909126174241        2.40909936163721
H            1.19239614877169        4.72089609471002        0.39270544373571
H            1.57016374552536        3.71583618680382       -1.81489825976076
H            3.04180966841687        1.74306607791716       -2.06289810599466
H            6.48651319574819        2.47507762360760        0.11336800091626
H            8.41930419284854        2.43735383042471       -1.43401368614700
H            8.66302797899139        0.63760085301059       -3.08128251389920
H            6.98730003974213       -1.17096222575411       -3.22759399540435
H            2.05394707014633       -5.32574179660506       -0.57636517595484
