  104
       -167.26541801
 C         12.4171445671        5.5164988264       -0.7019182161
 O         12.7089916513        4.3276367901       -0.0087646482
 C         11.8110173418        3.3073925393       -0.0581588982
 C         10.6019940129        3.3357380861       -0.7472968658
 C          9.7678191694        2.2342737133       -0.7324933233
 C         10.1110865972        1.0826421313       -0.0269882884
 N          9.2593444163       -0.0240310587       -0.0153593835
 C          9.7859330942       -1.3181733616       -0.0084948170
 C          9.1566313440       -2.3352816544        0.7064120675
 C          9.6658599174       -3.6195265287        0.7150405865
 C         10.8285239402       -3.9164372650        0.0094588083
 O         11.4186790928       -5.1397310151       -0.0480836779
 C         10.8180404252       -6.2108286150        0.6392728480
 C         11.4632626120       -2.8971993153       -0.7062921911
 C         10.9510417564       -1.6211942423       -0.7190452783
 C          7.8737547598        0.1617936588       -0.0076355886
 C          7.0383931054       -0.6899104062       -0.7338020904
 C          5.6738140210       -0.5071454453       -0.7200517221
 C          5.0907128196        0.5311837429        0.0114081303
 C          3.6403950554        0.7204040169        0.0237758462
 C          3.0775991313        2.0117945513        0.0671763084
 C          1.7196258428        2.1800950622        0.0907769371
 C          0.8491712952        1.0784143765        0.0680117934
 C          1.3996503576       -0.2166147442        0.0318946280
 C          2.7881852391       -0.3694275350        0.0050828208
 C          0.5729572615       -1.4175733124        0.0153588547
 O          1.0586360843       -2.5582456445       -0.0143605868
 C         -0.8584352756       -1.1746792726        0.0210925408
 C         -1.7300015276       -2.2748632210       -0.0238862312
 C         -3.0884349217       -2.1053050797       -0.0120455162
 C         -3.6488032691       -0.8142171520        0.0491376583
 C         -5.0979918429       -0.6149801085        0.0511590559
 C         -5.6795122555        0.3950450363        0.8219760047
 C         -7.0405709488        0.6006331369        0.8160036637
 C         -7.8738512283       -0.1939113968        0.0245858217
 N         -9.2521663658        0.0309155288       -0.0006175085
 C         -9.7432412309        1.3376812572        0.0813329525
 C        -10.9143996546        1.6175267097        0.7908729180
 C        -11.3886741855        2.9056813300        0.8726486256
 C        -10.7087329387        3.9594204764        0.2552489266
 O        -11.2611504148        5.1924607364        0.4051133203
 C        -10.6105414543        6.2976973340       -0.1743745237
 C         -9.5426468388        3.6844125231       -0.4534007648
 C         -9.0717883514        2.3884395751       -0.5401234552
 C        -10.1400835248       -1.0416812559       -0.1122496929
 C         -9.8710500059       -2.2571276616        0.5134020076
 C        -10.7444201817       -3.3225755119        0.4046034551
 C        -11.9185072568       -3.1932311803       -0.3315377070
 O        -12.8487285118       -4.1705417796       -0.5017161852
 C        -12.6285674815       -5.4235600456        0.0994506638
 C        -12.1922023946       -1.9739598523       -0.9577982778
 C        -11.3188028874       -0.9172538663       -0.8536970046
 C         -7.3012561488       -1.2088604581       -0.7450641939
 C         -5.9391851064       -1.4146994500       -0.7257326117
 C         -2.7962066400        0.2743872280        0.0892650270
 C         -1.4079862237        0.1203933613        0.0647742332
 C         -0.5815153226        1.3211990389        0.0856691228
 O         -1.0674343843        2.4616519630        0.1232111256
 C          5.9343804659        1.3788546787        0.7337124517
 C          7.3001217434        1.2003479664        0.7282525975
 C         11.3237700562        1.0606565579        0.6686798371
 C         12.1586032677        2.1529754879        0.6492750510
 H         12.3170536939        5.3413667288       -1.7780876362
 H         11.5049391061        5.9895505730       -0.3239482431
 H         13.2639488451        6.1774890527       -0.5240034550
 H         10.3004676718        4.2062203378       -1.3078962147
 H          8.8385461008        2.2635106638       -1.2819741969
 H          8.2609871006       -2.1148051377        1.2677013181
 H          9.1503461226       -4.3771070816        1.2833254928
 H          9.8066352014       -6.4088788875        0.2702821928
 H         10.7827510448       -6.0271341870        1.7179587180
 H         11.4480892564       -7.0768843901        0.4430965888
 H         12.3593410900       -3.1392042288       -1.2549167273
 H         11.4445710506       -0.8473533133       -1.2872378907
 H          7.4750226333       -1.4859651156       -1.3191041346
 H          5.0461272827       -1.1603608034       -1.3066102929
 H          3.7256957475        2.8757926547        0.0517932004
 H          1.2744560458        3.1642167256        0.1151153862
 H          3.1727783732       -1.3791028267        0.0000511177
 H         -1.2859766210       -3.2592329331       -0.0579663966
 H         -3.7390728256       -2.9676245334       -0.0196710154
 H         -5.0531974819        1.0069324041        1.4530349914
 H         -7.4759784683        1.3728405344        1.4331762711
 H        -11.4414851981        0.8156773272        1.2855820703
 H        -12.2878328867        3.1305366409        1.4235813763
 H        -11.2152578263        7.1647445240        0.0861175341
 H         -9.6011488165        6.4266733312        0.2286912491
 H        -10.5586716889        6.2079607392       -1.2641995155
 H         -8.9942322477        4.4688424493       -0.9497858244
 H         -8.1722121896        2.1860570944       -1.1017845001
 H         -8.9701153369       -2.3652669757        1.0986815094
 H        -10.5011203816       -4.2452366474        0.9069358084
 H        -12.5741647805       -5.3425007007        1.1898238180
 H        -13.4870790634       -6.0353576029       -0.1726988655
 H        -11.7151004916       -5.8951693788       -0.2766939207
 H        -13.1009824199       -1.8863653907       -1.5314192362
 H        -11.5368967700        0.0143477080       -1.3535955982
 H         -7.9342282937       -1.8201003513       -1.3718438617
 H         -5.5127766876       -2.1863031555       -1.3491416296
 H         -3.1808919184        1.2839244967        0.1065946686
 H          5.5086540063        2.1695831817        1.3329433816
 H          7.9368003772        1.8537612037        1.3069527517
 H         11.5991588492        0.1810703001        1.2307071342
 H         13.0930822573        2.1451279054        1.1871716291
