104
 energy: -167.269001851230 gnorm: 0.000122433665 xtb: 6.7.1 (edcfbbe)
C           12.46414263343205        5.48734365284276       -0.58617690014244
O           12.74340037097698        4.28489856356560        0.08897438682036
C           11.83853063008516        3.27181868722019        0.01658343692847
C           10.63795368782903        3.31784802720443       -0.68564290131016
C            9.79505811051233        2.22273683987668       -0.69359653610296
C           10.12137249126354        1.06053027972250        0.00172404272372
N            9.26127742064257       -0.04071935914338       -0.00898786370624
C            9.78282695226137       -1.33742709016538       -0.02651093389538
C            9.15255059385645       -2.36526507003019        0.67142198583844
C            9.65747561025009       -3.65141275144823        0.65434282362860
C           10.81683948979311       -3.93874915786049       -0.06004708865440
O           11.40254509487834       -5.16316918565107       -0.14347604149453
C           10.80185115660902       -6.24483055026514        0.52706667466671
C           11.45344093506377       -2.90832173539520       -0.75762476077350
C           10.94532620468131       -1.63062694738898       -0.74503921494433
C            7.87751073211359        0.15360475810771       -0.00347829273557
C            7.03812510566430       -0.68832447657695       -0.73625122864838
C            5.67451010827883       -0.49678692929802       -0.72425157720730
C            5.09701612202980        0.54151913240060        0.01064141897732
C            3.64682101749834        0.73888266490824        0.02054625682371
C            3.09100624119232        2.03324966020679        0.05508277926043
C            1.73403531525632        2.20931877051183        0.07189361647309
C            0.85801729194611        1.11150819842573        0.05223108408230
C            1.40158699578006       -0.18580168038177        0.02728264937479
C            2.79025635171475       -0.34645414543521        0.00651262003970
C            0.56865084178549       -1.38051683962701        0.01733205830897
O            1.04897116176436       -2.52548030137049       -0.00249335937550
C           -0.86060337212555       -1.13184703527060        0.01881945388715
C           -1.73662411868631       -2.22940501975537       -0.01290981268343
C           -3.09379247444686       -2.05301661082036       -0.00734944205188
C           -3.64867857849934       -0.75873050602827        0.03203161548055
C           -5.09861970383713       -0.55858400250484        0.02895050373224
C           -5.68250505450751        0.46029161125186        0.78520862448828
C           -7.04535386747076        0.65717502157503        0.78257954363911
C           -7.87688604484929       -0.15662734246981        0.00975215253867
N           -9.25855576142116        0.04803855014714       -0.00396672547957
C           -9.77218823387039        1.34682793873286        0.06223668694798
C          -10.94438961285154        1.61517723029706        0.77456256418885
C          -11.44439379506700        2.89459249396579        0.83768085735326
C          -10.78966170647015        3.95126670056316        0.19861517789047
O          -11.36762256214134        5.17508200988021        0.33024094244864
C          -10.74666325906503        6.28259906225175       -0.27665557602457
C           -9.62154671177499        3.68825406979669       -0.51089853011240
C           -9.12495431404186        2.40054726077321       -0.57917410469832
C          -10.12826401781830       -1.04288510990222       -0.08659543614573
C           -9.83181673900870       -2.23922234112872        0.56256632851871
C          -10.68411297492948       -3.32403944485258        0.48076353028379
C          -11.86454879595593       -3.23307145109905       -0.25065432605877
O          -12.77548216961042       -4.23272944470584       -0.39618052501793
C          -12.52366110848991       -5.46978023476354        0.22504173476922
C          -12.16672705121907       -2.03232229078010       -0.89896842712835
C          -11.31371350810333       -0.95659538336635       -0.82220524157493
C           -7.30060216336646       -1.17603299207387       -0.75094139121666
C           -5.93710532379959       -1.37248235455943       -0.73537265446435
C           -2.79260933744193        0.32646355344160        0.06043687341141
C           -1.40388948982104        0.16550649787195        0.04592080130582
C           -0.57096654078822        1.36008930561153        0.06069505204531
O           -1.05132402214369        2.50507075417830        0.08621477993283
C            5.94380642217432        1.38034080075904        0.73844045456378
C            7.30850231720926        1.19216588933667        0.73604470501015
C           11.32612763736831        1.02008418968481        0.70941029481018
C           12.16962091490712        2.10603275497155        0.71286033055403
H           12.37368683790591        5.33095460391877       -1.66595598216930
H           11.55044952770060        5.95766265186737       -0.20873136195275
H           13.31260579403338        6.14016273322467       -0.38788026030215
H           10.34991705972661        4.19732255106517       -1.23914091229838
H            8.87241707158733        2.26568105133557       -1.25295214827053
H            8.25903869800137       -2.15247876021970        1.23903721097345
H            9.14081644720376       -4.41794235743439        1.20940224961187
H            9.78887618098324       -6.43423244202889        0.15802735300354
H           10.77033309935441       -6.07990288412247        1.60887650445039
H           11.42958187514966       -7.10843088777424        0.31365466974744
H           12.34709114536192       -3.14304630088460       -1.31340293859863
H           11.43985419488068       -0.84753972127230       -1.29972662818561
H            7.47022054387630       -1.48421854126726       -1.32505559028086
H            5.04374840099197       -1.14295239933732       -1.31544753093199
H            3.74417429568538        2.89338320839840        0.03939852327090
H            1.29416067367024        3.19598640554829        0.08926677018660
H            3.17019223423837       -1.35785785142962        0.00803632511492
H           -1.29675722102193       -3.21604663035644       -0.03203411389026
H           -3.74834867448120       -2.91232461694030       -0.00435268941265
H           -5.05734093631594        1.08607386862001        1.40376070180078
H           -7.48290536305572        1.43635474775732        1.38937351144212
H          -11.45294288932881        0.81099045785978        1.28459777234770
H          -12.34535324871175        3.11011783765130        1.38941715684619
H          -11.37064382412716        7.14050044416916       -0.03159705092964
H           -9.73851756022527        6.44438966488614        0.11788859330388
H          -10.69822259555453        6.17042282833409       -1.36456419528423
H           -9.09134600309810        4.47549100098850       -1.02250214808356
H           -8.22434158469913        2.20736286789821       -1.14255197995876
H           -8.92515016281132       -2.31765789681188        1.14377623999303
H          -10.41926989864405       -4.23132310144654        0.99991143102188
H          -12.46293339678830       -5.36858440549484        1.31344854928703
H          -13.37054210541493       -6.10484003701372       -0.02971542827654
H          -11.60280897598424       -5.92800709061425       -0.14986249241114
H          -13.08073123340100       -1.97441356140256       -1.46801102339622
H          -11.55346498232527       -0.03949652865572       -1.33875903316079
H           -7.93254931824192       -1.80061479530406       -1.36542282228869
H           -5.50833291369408       -2.14908547162066       -1.35094213616996
H           -3.17334532013223        1.33759818403571        0.06339401078116
H            5.52170302651125        2.17178481128570        1.33942287513462
H            7.94761548753792        1.83870015134143        1.31970662828322
H           11.58868898710119        0.13079175831859        1.26221920396130
H           13.09866479481300        2.08340975823317        1.25961822301564
