104
 energy: -167.318358158180 gnorm: 0.000046901565 xtb: 6.7.1 (edcfbbe)
C           12.65146976252083        5.42368046283339       -0.32830670523738
O           12.85978607584462        4.20841108768494        0.34737150225050
C           11.93136821402825        3.21931174504180        0.20817307799062
C           10.77110644065311        3.31139881037338       -0.55219755498788
C            9.90112501977333        2.23831793125056       -0.62547761335427
C           10.15908603702033        1.05864937382140        0.06477284744382
N            9.27754210365154       -0.02990117784988       -0.01485510461991
C            9.80780330020468       -1.32783985631793       -0.08815895953048
C            9.21941166068103       -2.37822066284800        0.60813869586057
C            9.73782985120636       -3.65862599507573        0.53705290670538
C           10.87156951970907       -3.91159938944950       -0.22700273897625
O           11.46839500055831       -5.12944910706855       -0.36626266885503
C           10.90694359812091       -6.23153807859520        0.30284309473616
C           11.47040962386995       -2.85619363857276       -0.91782992450206
C           10.94551865254742       -1.58562537465955       -0.85416820310745
C            7.90357174600866        0.16919577645237       -0.01895145884729
C            7.05701675492482       -0.70031828372669       -0.71375345450769
C            5.69384944784602       -0.51060555226632       -0.70365351735978
C            5.11868713236451        0.56106079709467       -0.01774234156738
C            3.66928188815553        0.75920322957877       -0.01445563048965
C            3.11425848380496        2.04225631779167       -0.04555559872230
C            1.74736176192653        2.21820549374686       -0.04396664321524
C            0.88155089695877        1.12558737939016       -0.00867217031443
C            1.42476076187641       -0.16651058158776        0.02547232940470
C            2.80275949058595       -0.33192394597073        0.02061060567262
C            0.56890154939818       -1.37338492852438        0.06991839081578
O            1.04234288372432       -2.49674931227298        0.10211197029199
C           -0.88418091598130       -1.13470353902679        0.06947269990124
C           -1.75035462242800       -2.22694121803830        0.10766477977361
C           -3.11723987772241       -2.05083091343287        0.10547990032112
C           -3.67244427386627       -0.76798925382096        0.06523967576089
C           -5.12168228189344       -0.56904359662753        0.05699604641035
C           -5.70081016749207        0.51470449834213        0.72051294197653
C           -7.06345959316495        0.70811509096469        0.71427322365778
C           -7.90568757184548       -0.17114860131617        0.02665082624231
N           -9.27900284360635        0.03248449901801        0.00491216618595
C           -9.80409070531520        1.33404394560269        0.03739651540518
C          -10.95047317349071        1.61723539540556        0.78120130199341
C          -11.47079100833638        2.89109845694921        0.80298341675866
C          -10.85873914163212        3.92474686743443        0.09115352579802
O          -11.45292470934223        5.14800966316471        0.18798005165247
C          -10.88007866354759        6.22830382958217       -0.50652890835184
C           -9.71565077645866        3.64669949011193       -0.64989665888987
C           -9.20167521158861        2.36288263452797       -0.67884592058730
C          -10.16293445438106       -1.05514645657153       -0.05583986805940
C           -9.91305564544840       -2.21838336492454        0.66466408063557
C          -10.78479102872847       -3.29114731079134        0.61040740148614
C          -11.93869110846502       -3.21514872056167       -0.16132655773169
O          -12.86795268644753       -4.20562884203500       -0.28436854287513
C          -12.66497700473624       -5.40658170318666        0.41799095467985
C          -12.19588519139162       -2.04523578365410       -0.87881896070025
C          -11.32125502828618       -0.98396052728599       -0.83149698233579
C           -7.33009076334552       -1.25612473661077       -0.64122178851898
C           -5.96735609372996       -1.45133529308198       -0.61802392324500
C           -2.80530061334714        0.32274847003345        0.02978572697770
C           -1.42736145908216        0.15726007472790        0.03117289775168
C           -0.57152441210186        1.36420354620088       -0.01026019371037
O           -1.04499891902980        2.48758874045484       -0.04143116349771
C            5.96809320909382        1.43347383864118        0.66510430700971
C            7.33131448321846        1.24036155287385        0.67379372580281
C           11.32371641637108        0.97133835449531        0.82924378794328
C           12.19661021440924        2.03303859309528        0.89523218215107
H           12.61614919899735        5.28064837184844       -1.41338830669681
H           11.73164094908782        5.91680218852613        0.00320981184963
H           13.50533261077652        6.05085169587155       -0.07682331066238
H           10.53439075874786        4.20868945517897       -1.10180581771401
H            9.00929208366718        2.31723685782459       -1.22962635832208
H            8.34463347141657       -2.19182837102415        1.21351078138415
H            9.25078255756852       -4.44590966380025        1.09020573415952
H            9.88157573729991       -6.42480264475972       -0.02914343415903
H           10.91690109339697       -6.09155200289087        1.38882385877565
H           11.53421410595413       -7.08348413884891        0.04524517742336
H           12.34841590495683       -3.06352688713943       -1.50845272496192
H           11.41373296287945       -0.77947929685008       -1.39877979855517
H            7.48376937645223       -1.52195563138887       -1.26953398695395
H            5.06345831005598       -1.18291329703281       -1.26609546847734
H            3.76468425367364        2.90303065288888       -0.09363030683206
H            1.31454506262042        3.20747004724887       -0.07486756677046
H            3.18866180949993       -1.33975658967899        0.06773117763663
H           -1.31786217337216       -3.21619344396299        0.14329562643032
H           -3.76738784307246       -2.91161793520728        0.15646341778626
H           -5.07441883475351        1.19473642023292        1.27804761085534
H           -7.49347600289316        1.54054067828315        1.25120751414412
H          -11.42923864273750        0.82818044285960        1.34143670052663
H          -12.35563707172948        3.11793635385892        1.37596691516870
H          -11.50843858231287        7.08895926948718       -0.28275867734846
H           -9.85857331156571        6.42927415616554       -0.16729427253900
H          -10.87643040066818        6.05575078388599       -1.58785805225319
H           -9.21782983832204        4.41666913482372       -1.21763680530033
H           -8.31958611276933        2.15669002567682       -1.26694894769022
H           -9.02618569865966       -2.28444704853166        1.27760322134733
H          -10.55456201093727       -4.17525105733685        1.18363181613342
H          -12.63995922226833       -5.24139246407687        1.50021429891057
H          -13.51589191319264       -6.03967324135388        0.17140133281091
H          -11.74163778006104       -5.90537071557770        0.10524818981189
H          -13.09244896552309       -1.99753988291407       -1.47598627880691
H          -11.52862662102378       -0.08738036168961       -1.39606176719311
H           -7.96426913042311       -1.93589152047795       -1.19085898109743
H           -5.54544772768079       -2.28009080947252       -1.16725156146448
H           -3.19027173377952        1.33063717676750       -0.02275272168372
H            5.54891026311755        2.25221750383357        1.23123977107616
H            7.96860824335603        1.91158418192695        1.23025064883022
H           11.53740098522265        0.06175688195438        1.37016804094127
H           13.09801851415885        1.97292154029624        1.48392037545178
