104
 energy: -167.269011154947 gnorm: 0.000050605219 xtb: 6.7.1 (edcfbbe)
C           12.49402201593003        5.48239125455194       -0.36142882912187
O           12.75880289917034        4.25634303631894        0.27600640640946
C           11.85162351677996        3.24995262196850        0.15560339833401
C           10.66305528834846        3.32360991169346       -0.56449128210028
C            9.81521323142720        2.23361072970548       -0.61969398546146
C           10.12462287361084        1.04920678620102        0.04506351422371
N            9.25929445090524       -0.04699591226257       -0.01043415830176
C            9.77885458497767       -1.34394274454744       -0.06456356941469
C            9.14556880149753       -2.39164403800482        0.60010825107681
C            9.64882020565572       -3.67741848135798        0.54467716285972
C           10.80957606925857       -3.94431770730282       -0.17534358172446
O           11.39318109350938       -5.16661839037249       -0.29583803487545
C           10.78658146228774       -6.26839926327338        0.33550888310427
C           11.45008136928175       -2.89362225708388       -0.83825913594299
C           10.94356280962735       -1.61623527938582       -0.78762634749321
C            7.87667551924584        0.15138061667186       -0.01011520782057
C            7.03910826393909       -0.67693017451099       -0.76065011669506
C            5.67572141483104       -0.48377516437569       -0.75144015006175
C            5.09705861435384        0.54519347575889       -0.00486443780288
C            3.64697358607654        0.74426420816995        0.00099822708887
C            3.09235743879859        2.03906625733520        0.02703580331636
C            1.73531728000678        2.21582892201572        0.03739299547650
C            0.85900239223725        1.11814861026577        0.02294543091541
C            1.40190976955424       -0.17959554544757        0.01053082449064
C            2.79056679869072       -0.34103216490944       -0.00816809835409
C            0.56850605494398       -1.37398656382650        0.01335723609258
O            1.04838831444157       -2.51931221281422        0.00457771276729
C           -0.86051755401620       -1.12475257702579        0.01589853244273
C           -1.73701322983786       -2.22232599346493        0.00371198796945
C           -3.09403743523497       -2.04541831084926        0.01154950914234
C           -3.64889976227624       -0.75050171964424        0.03127159269857
C           -5.09886627920618       -0.55087621099278        0.02903914174401
C           -5.68062835757807        0.48778132002922        0.75980807034518
C           -7.04367382983872        0.68352130971379        0.75778909860005
C           -7.87792466795876       -0.15289484003176        0.01270291386630
N           -9.26022902609084        0.04887587577219        0.00075817067635
C           -9.77580632107329        1.34818316418463        0.02431060292702
C          -10.94614927627086        1.63908593299215        0.73087092989822
C          -11.44889928972635        2.91882214626404        0.75026537942380
C          -10.79893720028274        3.95354106571908        0.07159718996008
O          -11.38001286706261        5.17974696385926        0.16059206667791
C          -10.76484621230842        6.26589504979052       -0.48928728373084
C           -9.63211882590347        3.66828160987878       -0.63137757583981
C           -9.13260953860089        2.38010726399715       -0.65543598044330
C          -10.12739712213047       -1.04635224082805       -0.03933641066454
C           -9.82323642216166       -2.21888768365290        0.64855610273600
C          -10.67268636297467       -3.30830869715832        0.60936172509191
C          -11.85762317955850       -3.24599491162357       -0.11775543810383
O          -12.76610900285939       -4.25283792699392       -0.22375905282215
C          -12.50696726744398       -5.46703470920547        0.43820258147925
C          -12.16742786646161       -2.06909828035211       -0.80503987167098
C          -11.31746846939266       -0.98878208335485       -0.77026434895490
C           -7.30421749398709       -1.19239407407112       -0.72214870560837
C           -5.94034107119947       -1.38612362739619       -0.70875738849063
C           -2.79209855084760        0.33458351026890        0.04009341860893
C           -1.40344535573529        0.17301055488949        0.02582896624295
C           -0.57005795321388        1.36737226565477        0.02470563367217
O           -1.04993343591811        2.51270982651179        0.03398858593030
C            5.94141338890853        1.37214629672330        0.73877529330165
C            7.30556699381908        1.17989731870287        0.74218754183067
C           11.31855469605101        0.98005247255120        0.76861516529155
C           12.16692802152877        2.06099369390151        0.81920955691703
H           12.42566941722701        5.36461728583391       -1.44772244302135
H           11.57306638865920        5.94016926027417        0.01373211483218
H           13.33859455698683        6.12665821873132       -0.12261742302833
H           10.38833648113583        4.22113950738171       -1.09533091612285
H            8.90185975541587        2.29847269694688       -1.19203943035098
H            8.25087702605215       -2.19516375117675        1.17171870112656
H            9.12967875819753       -4.45994335118589        1.07452562258867
H            9.77411120420145       -6.44132725467770       -0.04289138709694
H           10.75223425116559       -6.14051461764226        1.42222839234286
H           11.41190622185444       -7.12648250235944        0.09454379555600
H           12.34526496957276       -3.11226148879375       -1.39810831626734
H           11.44105828632849       -0.81682588892814       -1.31576015887435
H            7.47227142489327       -1.46401734229985       -1.36035229997990
H            5.04584763625645       -1.12051070552089       -1.35382752481960
H            3.74682731083290        2.89824759601255        0.00944789342810
H            1.29572848497023        3.20273489219971        0.04613237667346
H            3.17111739980585       -1.35220653889639        0.00010486197204
H           -1.29760996584033       -3.20933855449891       -0.00171299789383
H           -3.74824472716204       -2.90473120305602        0.03126414233037
H           -5.05372412439023        1.13093076379117        1.35842230571534
H           -7.47931915916390        1.47928588773250        1.34411670354886
H          -11.45116981822987        0.85238590582410        1.27080959780450
H          -12.34856589836725        3.15177839356876        1.29700311720370
H          -11.39036292169133        7.13048962039940       -0.27340407348368
H           -9.75557480643602        6.44499997935627       -0.10525558658322
H          -10.72055471054307        6.11377520366798       -1.57252300274400
H           -9.10530568061756        4.43807938689796       -1.17218030251352
H           -8.23313592424482        2.16915154582084       -1.21423595461518
H           -8.91274273753896       -2.27468263036138        1.22638595117953
H          -10.40211276661029       -4.19632500572257        1.15802863954227
H          -12.44375869183431       -5.32871652814847        1.52238533264955
H          -13.35164788774289       -6.11410224617665        0.20748314981250
H          -11.58509032418082       -5.93365135802511        0.07643517880005
H          -13.08490766118613       -2.03353812992010       -1.37031018612603
H          -11.56316634906997       -0.09066337876880       -1.31651586522108
H           -7.93864324313801       -1.83494689413792       -1.31519441602778
H           -5.51400987927700       -2.17846577969031       -1.30561781565969
H           -3.17201082453258        1.34594060323905        0.02784199662336
H            5.51717412317365        2.15647851998079        1.34763166900905
H            7.94234625426059        1.81542319148541        1.34024060421848
H           11.56853241505682        0.07225619764855        1.29663138042523
H           13.08734548967936        2.01651242637521        1.37904441397789
