104
 energy: -167.317669811499 gnorm: 0.000068830896 xtb: 6.7.1 (edcfbbe)
C           13.36617388269011       -2.37328825918778       -4.33433450455389
O           12.08965717968433       -2.78024292918499       -3.90894159909297
C           11.44639753962281       -2.02789063357973       -2.97016042963347
C           11.95084890044757       -0.87070925842170       -2.38798120590218
C           11.20634703422093       -0.18585241958391       -1.44419064902490
C            9.95255842646320       -0.64219436490414       -1.05173560411452
N            9.21166427550845        0.04477773652287       -0.07948338298959
C            9.87369495639713        0.61427867753207        1.01781369731944
C           10.94521558663467       -0.03725720442696        1.61902412675825
C           11.61443651377865        0.52950660985929        2.68903692401236
C           11.21425814218731        1.76335674867747        3.18908012364904
O           11.79736964798194        2.41344823193378        4.23703021080713
C           12.88878635092853        1.80408103819386        4.88023184520016
C           10.13488597096987        2.41673705821438        2.59123449104227
C            9.47844271183638        1.85568721521659        1.51994369860776
C            7.83038773867089        0.15936914242895       -0.20046806797776
C            7.23229431523846        0.29138472446764       -1.45631895988804
C            5.86525287953090        0.41699484233363       -1.57059034374586
C            5.04418266954471        0.39616736489628       -0.44306385113933
C            3.59016131762081        0.52453041475136       -0.56567400063353
C            3.02095243402491        1.42224567587200       -1.47277651592200
C            1.65169497970960        1.54862164154876       -1.57057581453937
C            0.80096770609313        0.77480445364201       -0.78213951555718
C            1.35987411931047       -0.14161101289210        0.11966959951783
C            2.74027572141948       -0.24739195941680        0.22298389201801
C            0.51849386447260       -1.01669154793298        0.96691967453056
O            1.00494325841874       -1.80323512761384        1.76142300599271
C           -0.93694029812863       -0.88149974840441        0.78838354879590
C           -1.78971015411542       -1.70820044858585        1.51889210771657
C           -3.15820795986653       -1.61171550765455        1.38814454263314
C           -3.73125949358847       -0.66994245188626        0.52686046970673
C           -5.18301734952986       -0.54922636692177        0.39340061062459
C           -5.76617319560430       -0.17898855863641       -0.82094419276344
C           -7.13144032907524       -0.06175861735693       -0.95021697047108
C           -7.97385685607021       -0.30701874902167        0.13790854774076
N           -9.35218381241653       -0.18288005382286        0.01187134023464
C          -10.20879893738751       -1.03048107970923        0.72877959417499
C           -9.89121966067230       -2.37872204139883        0.90443800234642
C          -10.73784832188953       -3.21034787390127        1.60078125930250
C          -11.93447870138437       -2.72722277664299        2.13392737144763
O          -12.70180649618817       -3.63914067616245        2.79701530737812
C          -13.92366370556366       -3.21359100383869        3.34707146282248
C          -12.25725222611759       -1.38673210465957        1.95631266913241
C          -11.39844808658770       -0.55035072037809        1.26585945982953
C           -9.89908842615610        0.79827321036088       -0.82869792143186
C           -9.32630180312882        2.06337412615460       -0.90862231505822
C           -9.86317229526966        3.03809304809340       -1.73012236791207
C          -10.99981681331895        2.76782123043346       -2.48365454027684
O          -11.61759958368762        3.65262380920580       -3.31736597970261
C          -11.07915541819021        4.94592960696733       -3.43948361397426
C          -11.57937756964516        1.50008559038051       -2.40138345429065
C          -11.03627029226348        0.52877485731294       -1.59168539858407
C           -7.39648253105188       -0.67715982248235        1.35567485002583
C           -6.03027198974447       -0.79658523674815        1.47595351642936
C           -2.87620844896687        0.15440003915042       -0.20354712021065
C           -1.49645755612079        0.05599123164460       -0.09104218943170
C           -0.65561008308239        0.94953776581525       -0.91860687084238
O           -1.14210491373817        1.77381030758531       -1.67390388824911
C            5.64412190069358        0.25176041335535        0.80831517879867
C            7.01161554401930        0.14524687739558        0.93185124014629
C            9.45192601738657       -1.80766006874114       -1.63534415640496
C           10.18513110435217       -2.48455419701128       -2.58277173384728
H           13.33815119113104       -1.38588387763985       -4.80701998395234
H           14.08167372036093       -2.35876141302085       -3.50536390643463
H           13.68226105689077       -3.11326849235037       -5.06798738658728
H           12.91934773922464       -0.48440950960577       -2.66376438847510
H           11.60523465777183        0.71597879834540       -1.00366089629704
H           11.26007012535693       -0.99970311763473        1.24354972874951
H           12.44101613361414       -0.00774379969147        3.12648995633319
H           12.60961997775778        0.84320962130690        5.32505282035517
H           13.18701915826868        2.49184273652060        5.67002239689065
H           13.72959940519448        1.65609250416360        4.19430565293363
H            9.83543953895699        3.37553346925243        2.98349407191844
H            8.65247006219397        2.37730061098113        1.05998835307060
H            7.85292017005550        0.30238211337612       -2.34011350936809
H            5.42262620838114        0.51176996141635       -2.55130690375658
H            3.66291392078204        2.03930363124711       -2.08408925413693
H            1.20611047200785        2.25195604833108       -2.25880687134714
H            3.14171610013929       -0.96909787225294        0.91949911302058
H           -1.34562442491600       -2.43224956824520        2.18630052730964
H           -3.79445068644789       -2.28423921003600        1.94376900131150
H           -5.14115630074020       -0.01415130977005       -1.68548904038680
H           -7.56364413547785        0.21042153983067       -1.90177302397663
H           -8.97565857351160       -2.76882599032696        0.48562855636962
H          -10.49963800272141       -4.25293898342329        1.73892257211208
H          -14.36036907988773       -4.09570937976425        3.81275612290192
H          -13.77578147782700       -2.43995160133009        4.10782912942071
H          -14.60410671841704       -2.83868222464627        2.57532230672169
H          -13.17094490969291       -0.97567039362994        2.35544932251276
H          -11.65679567998381        0.49063642387527        1.13971389057180
H           -8.44977231666087        2.28882832102712       -0.31926750106475
H           -9.38836295361597        4.00578284016990       -1.76397020136503
H          -11.08892878611016        5.47844935210386       -2.48265882072944
H          -10.05695573886043        4.92166741531777       -3.83113521604890
H          -11.72220831961992        5.46737317361219       -4.14675211191431
H          -12.45774219148854        1.29938956282910       -2.99386154364875
H          -11.48954579516707       -0.44994346324618       -1.54283199755966
H           -8.03275374182221       -0.85628961226808        2.20977945253546
H           -5.60963456611431       -1.04947258309669        2.43777355030400
H           -3.27081754898040        0.90935641294414       -0.86751792810898
H            5.02891466429175        0.24218126247015        1.69568081227749
H            7.46052835499240        0.04109206148070        1.90848196473826
H            8.48333188596121       -2.17912704339529       -1.33599345567250
H            9.80514302344263       -3.38599828419222       -3.03644357208627
