75
 energy: -117.205236703783 gnorm: 0.000092069791 xtb: 6.7.1 (edcfbbe)
O            0.17541637399609        2.74148351779850       -2.79217994691556
P            0.11974311672593        2.26564907961212       -1.39482600955059
C            0.11115537431573        3.63298497315279       -0.18911438480216
C           -0.45598691578204        4.83126566265655       -0.60562373519206
C           -0.51444496350159        5.90964844682028        0.25773490461011
C           -0.00274048554527        5.79402382642181        1.54145152292905
C            0.57164508984302        4.60201730288621        1.95595577082509
C            0.62999817120870        3.52041631071720        1.09548172887149
C            1.52547751458430        1.20779135054285       -0.93890913228103
C            2.69416257489628        1.37315884938524       -1.68016234006367
C            3.83901281700353        0.62894033352130       -1.39196093842682
C            3.77629423560847       -0.26388789361875       -0.33666767765184
C            2.57711722454337       -0.46587335888849        0.40656186681490
C            1.44145630459821        0.28403841174159        0.09801606795742
C            2.84993212687716       -1.48872349307165        1.36140261548437
C            2.09639790070395       -2.10305249245693        2.36283857426900
C            2.70544555967462       -3.06476368141706        3.15369011785649
C            4.04096066682524       -3.41621635579877        2.97679763460830
C            4.81256186296059       -2.82163934314578        1.97894042084498
C            4.20544392416353       -1.87927629847625        1.16801315794889
N            4.74324185441679       -1.12809697854485        0.13857142164426
C            6.04739613149248       -1.23506100536179       -0.34913935375869
C            6.82805618582916       -0.09074289163615       -0.52877924295518
C            8.11567723218733       -0.20435220217849       -1.01402081577910
C            8.64087029247826       -1.45031945038182       -1.32666313124298
C            7.86735626879233       -2.58863432084390       -1.14816396983263
C            6.57896663013913       -2.48837441391188       -0.66223550666425
C           -1.36539297682373        1.28119997246422       -1.03238264512651
C           -1.90264190212530        0.56414173280186       -2.10202857311762
C           -3.03570035511969       -0.23289950814979       -1.93447918497272
C           -3.60189922679335       -0.28822257665215       -0.67382270933109
C           -3.03968971804291        0.41143615179102        0.43564994123766
C           -1.91670808013643        1.21754696117623        0.24175985793514
C           -3.82950690512619        0.08204783728785        1.57492514341435
C           -3.78994293030386        0.45383795009598        2.92008496806215
C           -4.76350535158651       -0.04301849836206        3.77385904379030
C           -5.77241629326106       -0.88533168953675        3.31810185446459
C           -5.83084787135657       -1.27446436585661        1.97864103452639
C           -4.84868744160840       -0.80497882210848        1.12595756618316
N           -4.69171114035551       -1.01275219319959       -0.23373754772734
C           -5.50890956989186       -1.81604219682940       -1.03047883158634
C           -6.01808989886520       -1.32542479636200       -2.23580612058798
C           -6.83193617104611       -2.12247582038027       -3.01540206834216
C           -7.14788420662129       -3.41230519609592       -2.61097362387680
C           -6.64102928368131       -3.90297128530986       -1.41566117099244
C           -5.82747918281384       -3.11534260844055       -0.62619652208712
H           -0.83929673046810        4.89935209983753       -1.61482287591632
H           -0.95718621725217        6.83938302891843       -0.06904668202887
H           -0.04717654654530        6.63499783171180        2.21776526795323
H            0.97697964621129        4.51546657966303        2.95386539867059
H            1.08483820338644        2.59216144842565        1.41187310722036
H            2.69278896443698        2.08559075119005       -2.49191790877787
H            4.73226603476924        0.74687301493874       -1.98524607584698
H            0.51751573586505        0.13916729593569        0.63661988151503
H            1.06394623151228       -1.82914071771844        2.51664729051372
H            2.13428365198368       -3.54697837890444        3.93405755346857
H            4.49014109208519       -4.15521909571382        3.62201126220106
H            5.85240477681366       -3.08355646020697        1.85928447365285
H            6.42570630539791        0.87376033283691       -0.25773118704847
H            8.71698154785566        0.68338585481011       -1.14243785200578
H            9.64710327599134       -1.53366728963744       -1.70776400297783
H            8.26880468731922       -3.55937852305299       -1.39818441690867
H            5.96293933127020       -3.36805914499207       -0.55134697444191
H           -1.42538173381997        0.64387259656723       -3.06762219181054
H           -3.43711360643136       -0.79449310506793       -2.76361726774689
H           -1.49389001371243        1.78425792841767        1.05734820383696
H           -3.02114181630584        1.11930135139739        3.28153921751114
H           -4.74516174025645        0.23824947427698        4.81708227440258
H           -6.52543591091785       -1.24041380915034        4.00432907450656
H           -6.62893007837098       -1.90936453152100        1.62643284744254
H           -5.79536007333012       -0.31109448668495       -2.53132883105199
H           -7.23055904985512       -1.73313817445245       -3.94039255703705
H           -7.78479078754213       -4.03115554868718       -3.22416197572272
H           -6.87553768024287       -4.90934579508524       -1.10210368417207
H           -5.40617244756017       -3.50391888825687        0.28860929999352
