75
 energy: -117.205152486938 gnorm: 0.000057966023 xtb: 6.7.1 (edcfbbe)
O            0.15803745580756        2.58790890434027       -2.81787362634940
P            0.12407707646807        2.17320927803418       -1.39926510611647
C            0.17504026194420        3.57754663468643       -0.24839839570502
C            0.34130996658537        3.40043122677806        1.12283987441991
C            0.38995687541684        4.50260659042084        1.95483810722323
C            0.28054105915154        5.78137357993920        1.42700230612886
C            0.12387691574651        5.95904040265550        0.06001049517454
C            0.07337976339559        4.85886072419562       -0.77599342458154
C            1.53121400272406        1.12749898799835       -0.92177864970534
C            2.72890147859957        1.35206494566554       -1.59846248284790
C            3.88439908506939        0.64476463766264       -1.26913536714543
C            3.80096088124118       -0.27633837207126       -0.23836602951538
C            2.57495695575888       -0.54001116909075        0.43694500766875
C            1.43185246801139        0.18279236799239        0.09501138878330
C            2.83722209969428       -1.58216634550074        1.37507273788555
C            2.05649767368172       -2.25546042580088        2.31521791127131
C            2.65845721529345       -3.22129260375759        3.10644757179946
C            4.01345051141931       -3.51888431719019        2.98955672538850
C            4.81332036171750       -2.86379474869743        2.05427378395729
C            4.21431343752002       -1.91735658461061        1.24184073778232
N            4.77484378443721       -1.11609916100866        0.26382592697775
C            6.11054329636680       -1.14382438679663       -0.14381310406503
C            6.84131712602159        0.04291875896743       -0.23353558170309
C            8.16187190974395        0.00982856833051       -0.63548192021269
C            8.76883505179181       -1.19701065291679       -0.95312895437452
C            8.04421673114063       -2.37711356394927       -0.86547930074019
C            6.72340052870346       -2.35734462123384       -0.46315616962441
C           -1.35256521647181        1.18995344349266       -0.99034921953065
C           -1.53012257498658        0.04693581616277       -1.77600182204701
C           -2.64036517562559       -0.77760107761318       -1.60083404257006
C           -3.54594260714776       -0.43458526633213       -0.61283330151554
C           -3.38869346420027        0.74591997781201        0.17476129122957
C           -2.27266166827701        1.56203631933455       -0.02346989353774
C           -4.52136076858265        0.82219063109548        1.03583238542127
C           -4.92443874612598        1.72035017665021        2.02539339366626
C           -6.10433248270712        1.46616920564229        2.71053217077321
C           -6.87442658982001        0.34051020285533        2.44206712108576
C           -6.49331034434608       -0.57069398805387        1.45422846857309
C           -5.33439946798512       -0.30934057014469        0.74675871045993
N           -4.72667882108761       -1.05288372092894       -0.25128271509486
C           -5.23010960060863       -2.23068902235744       -0.80404164214715
C           -6.56348739160890       -2.29947916725911       -1.21749202975284
C           -7.05730857649178       -3.46801912387818       -1.76133131953854
C           -6.23772328352093       -4.57992001685335       -1.89955196277666
C           -4.91304393480924       -4.51413807431177       -1.49018669162614
C           -4.40640031518977       -3.35092916946155       -0.94654805123679
H            0.43455760912195        2.40176927510969        1.52489462353179
H            0.51661348663869        4.36682768222964        3.01932427965800
H            0.32043956404595        6.63984852767229        2.08121367416571
H            0.04201056717876        6.95437391525824       -0.35217923572696
H           -0.04449364949151        4.96926785921537       -1.84542674908351
H            2.73942021061970        2.07927038380764       -2.39751874591081
H            4.80204691162365        0.80800238964360       -1.81255098469065
H            0.48876274023247        0.00086115847674        0.58801504857922
H            1.00848693544906       -2.02187247023009        2.42356398983987
H            2.06583272081372       -3.74980149319905        3.83930265815533
H            4.45506165240228       -4.26348220904462        3.63355656456274
H            5.86713544974563       -3.08392686752861        1.98211353706466
H            6.37311219294264        0.97601407429078        0.04192077025313
H            8.72418097132256        0.92984473150334       -0.69402821481961
H            9.80108806615548       -1.21729450199160       -1.26740770612890
H            8.50973185529815       -3.31741265145733       -1.12067052353058
H            6.14722463201110       -3.26940368503976       -0.42266258229787
H           -0.79053325204062       -0.17986639515770       -2.53125031515245
H           -2.78529793117155       -1.64172513427841       -2.23040077777368
H           -2.13584649365724        2.46308536820745        0.55510245249430
H           -4.32630598073681        2.58967290473462        2.25140193123641
H           -6.42781706126385        2.15415716109139        3.47853014050588
H           -7.77760587152996        0.16156863256680        3.00447715588613
H           -7.08352746811292       -1.45413248588224        1.26658393647454
H           -7.18824104257327       -1.42254076489670       -1.13893041517053
H           -8.08572869763647       -3.51115017002389       -2.08765728857122
H           -6.62874641299876       -5.49157253769380       -2.32448612952924
H           -4.27392325596213       -5.37908879534681       -1.58781584926053
H           -3.38551577256905       -3.30604817919774       -0.59841257728894
