75
 energy: -117.318882637804 gnorm: 0.000048115379 xtb: 6.7.1 (edcfbbe)
O            0.24513970122098        2.80722774640162       -2.41146642513105
P            0.13683211988428        2.32744285645657       -1.01872408903006
C            0.15746371896345        3.69391432560857        0.19184061522730
C           -0.45705882013626        4.87671912020826       -0.19839378358256
C           -0.49518060022341        5.95773267270408        0.66365617766292
C            0.08298391506182        5.85768340973263        1.91946743917554
C            0.70125810755877        4.68017888781383        2.30875383998784
C            0.73989016947177        3.59653426717887        1.44821813318765
C            1.49117953858393        1.20905309911546       -0.55143166472095
C            1.36906376628169        0.28019777034074        0.48707805967288
C            2.41434351555769       -0.55331836163340        0.82641690782762
C            3.59528309323624       -0.45204134292983        0.09937307184226
C            3.73353869517699        0.49760252798788       -0.94431708170038
C            2.67111086366756        1.32622501545868       -1.26806470607823
C            5.06994228730659        0.35380045450737       -1.45015245328289
C            5.77979301501910        0.98004620697439       -2.46717783164892
C            7.07577241134676        0.57335188484533       -2.71401519383037
C            7.66013385620474       -0.45096544805008       -1.97044285776791
C            6.97444090607240       -1.08727094170860       -0.95344009863508
C            5.67783285477958       -0.66957662647907       -0.68723636089020
N            4.77384323524594       -1.14469559570753        0.24398859291125
C            5.01648921792742       -2.17552582731889        1.17042119990721
C            4.15204707485378       -3.26305741632284        1.24678933679706
C            4.39545454305241       -4.27373168315392        2.15948087975663
C            5.50179901078921       -4.21254106129619        2.99102996933160
C            6.36461636056050       -3.13150548282600        2.91260504804761
C            6.12414307061631       -2.11123281360867        2.00989199761718
C           -1.40925205694679        1.42628193346875       -0.69704380060537
C           -1.99862233266020        1.37697040123633        0.57003014058627
C           -3.16741584821974        0.67722216819319        0.78747183274568
C           -3.74925005093372        0.02288523787069       -0.29250571348417
C           -3.14838624181177        0.05109439514633       -1.57643753064814
C           -1.97550752079940        0.76214796142194       -1.77316660468679
C           -3.98031705655257       -0.74802370977222       -2.43208243458397
C           -3.92352638997424       -1.08320912116698       -3.77928732989747
C           -4.92196944047089       -1.87973388074328       -4.30328197312729
C           -5.97371349682581       -2.32918651270397       -3.50615153425708
C           -6.05193443250609       -2.00810976131484       -2.16446251664912
C           -5.03988628865652       -1.22512246836119       -1.62667870290200
N           -4.88578860407311       -0.74915217466752       -0.33845829462715
C           -5.75549134188226       -1.00060780444936        0.73875845883880
C           -6.09271616414541       -2.30875497031840        1.07155810956693
C           -6.95526845669212       -2.55073731593018        2.12564087184631
C           -7.47669457151392       -1.49643866089584        2.85764117046389
C           -7.13621817162717       -0.19407092143226        2.53021849918085
C           -6.28204982693998        0.05831044042523        1.47174084835962
H           -0.89140039034424        4.93343302582470       -1.18756466805036
H           -0.97336459370836        6.87663059816093        0.35694304104995
H            0.05581296378396        6.70073183577867        2.59418729757454
H            1.15682082282660        4.60552588522542        3.28560843910339
H            1.22648286731942        2.67843056237525        1.74564722187778
H            0.43388254292907        0.21330423365595        1.02387201757424
H            2.31647153593818       -1.25956284877316        1.63697216411324
H            2.73812178041723        2.05198956787568       -2.06612761115246
H            5.31968479999124        1.76328129485277       -3.05096481255510
H            7.64588591899599        1.04710619524291       -3.49955517138481
H            8.67118725519805       -0.75641720006000       -2.19687539697245
H            7.43030194721783       -1.88936847332585       -0.39314910860190
H            3.30215536855918       -3.31574128189325        0.58244544999665
H            3.72213575101045       -5.11637550622622        2.21454804173168
H            5.69114507027241       -5.00573046953478        3.69857637616747
H            7.22621831218954       -3.07792801226732        3.56157660753106
H            6.78366973716664       -1.25779173495048        1.95688369666478
H           -1.53137863709999        1.90691786437171        1.38779073217248
H           -3.61165406578282        0.63598520109844        1.77047328555968
H           -1.49882403553201        0.81682642908221       -2.74180199747545
H           -3.11550250004954       -0.72163936219862       -4.39764582047409
H           -4.89625404145435       -2.15436881266037       -5.34750726796366
H           -6.74712553961913       -2.93967760883414       -3.94881323281483
H           -6.87797439086518       -2.34837100390001       -1.55869606016721
H           -5.66944783345176       -3.12746966159161        0.50877015688100
H           -7.21503287960297       -3.56771064765502        2.38006810169885
H           -8.14807236250335       -1.68928565889642        3.68083438664954
H           -7.54339445623555        0.63083940598931        3.09598489042247
H           -6.02869728239598        1.07242630295282        1.19986302207149
