75
 energy: -117.319215114985 gnorm: 0.000073463396 xtb: 6.7.1 (edcfbbe)
O            0.18688563789722        2.60612315789471       -2.81447196933959
P            0.14173616295686        2.18575255555262       -1.39810255206473
C            0.15958867103138        3.59295178027777       -0.24253572186085
C            0.41306334396715        3.42913032019675        1.11416139723253
C            0.41105121718552        4.53088304357909        1.95002845922883
C            0.15798698449504        5.79401139108455        1.43608911914311
C           -0.08947230445447        5.95898330878432        0.08278540314099
C           -0.08731318092756        4.85819410708660       -0.75638155856473
C            1.55051426109820        1.14552106923797       -0.91333117865224
C            2.76130538448913        1.37421450625870       -1.57320482527593
C            3.90156358305432        0.66698492949365       -1.25520097479275
C            3.81233065778388       -0.28341837812430       -0.24422414719329
C            2.58149283688152       -0.54382606950255        0.40981902722743
C            1.44853766598552        0.18180521392195        0.07700723284141
C            2.83383276292691       -1.60507409252611        1.34435023195221
C            2.03954166960248       -2.27807568180584        2.26461911629698
C            2.61936308234127       -3.25944472645493        3.04351369338568
C            3.97466849732146       -3.56290412173764        2.92338875217881
C            4.78385698190494       -2.90849019760777        2.01420132741788
C            4.20178347355828       -1.93669225090333        1.21204040446719
N            4.77697772047610       -1.12980967529058        0.24895786393262
C            6.12615314976905       -1.16132356793947       -0.14870880925278
C            6.88102788913315        0.00733201727085       -0.14499737880221
C            8.20721269049387       -0.02823865572952       -0.53666823775654
C            8.78946295906878       -1.22439807364847       -0.92324614798328
C            8.03880185675055       -2.38868442200357       -0.92380595184624
C            6.70917420237974       -2.36131025575777       -0.54315724470421
C           -1.33984133774897        1.20731647809840       -0.99601464272282
C           -1.51820128878753        0.04944264686904       -1.76112857819904
C           -2.60825589581465       -0.77449930397859       -1.58135122122859
C           -3.53273290506829       -0.41914660779992       -0.60466997563350
C           -3.37494211939001        0.76647007596078        0.15528993196893
C           -2.26890761030193        1.58125497397236       -0.04192834314790
C           -4.51649522753084        0.84880821697393        1.02265118244833
C           -4.91623747979143        1.75879192250659        1.99387245878171
C           -6.09365587980839        1.52226028592220        2.67460754140970
C           -6.86178393376444        0.38983294349361        2.40736580294940
C           -6.48443111913782       -0.52907036325905        1.44696528569907
C           -5.31276795116102       -0.28576973214963        0.74340540248973
N           -4.70347151763393       -1.04143526952572       -0.23960860375838
C           -5.20155726686757       -2.24094041126007       -0.78075505412102
C           -6.49883890148305       -2.29384197386822       -1.28049388906496
C           -6.98681873877272       -3.47671655169993       -1.80594361219783
C           -6.18566927017841       -4.60623247321011       -1.84597211246847
C           -4.89211379475439       -4.55221816764026       -1.35325896920816
C           -4.39865394264811       -3.37656248986723       -0.81673421463377
H            0.61226351947857        2.44176545211802        1.50549818766191
H            0.60746586931235        4.40550875152107        3.00496963172979
H            0.15698902822865        6.65186828116014        2.09252016373725
H           -0.28351703418546        6.94305696768776       -0.31846035504632
H           -0.27174680040956        4.95908128196442       -1.81722970909635
H            2.77715412593720        2.11917163987532       -2.35704659379511
H            4.82803268882261        0.84051847044580       -1.78128758615303
H            0.50320171344591       -0.00802505037284        0.56467747133291
H            0.99306032629757       -2.03215041806983        2.36664821285519
H            2.01988938699783       -3.79668304202082        3.76355827556104
H            4.40288031621900       -4.32504769764164        3.55785352884305
H            5.83527559156982       -3.14035843877971        1.93823212951022
H            6.42730466574827        0.93395692421517        0.17432019671143
H            8.78943146492797        0.88138492284584       -0.53234717390838
H            9.82612975343847       -1.24869890659320       -1.22383805401123
H            8.48734386342633       -3.32246242547364       -1.22920596230889
H            6.11473334907866       -3.26272746496855       -0.55984817227917
H           -0.77358232973626       -0.18205250747251       -2.51195462899047
H           -2.74275654471281       -1.65829685707586       -2.18627697189196
H           -2.13839690868312        2.48659386877324        0.53268323101737
H           -4.31329639252573        2.62848981665497        2.20886537993231
H           -6.42479502631444        2.21795536510000        3.43152645169762
H           -7.77141330039299        0.22555546309149        2.96630709995723
H           -7.07822144684986       -1.41021956807144        1.25698993323318
H           -7.11245069986512       -1.40529636880763       -1.26469200206065
H           -7.99437147094807       -3.51347854870725       -2.19305020781805
H           -6.56874746168660       -5.52663270496222       -2.26032976213711
H           -4.26515333755918       -5.43125631346111       -1.37961524713304
H           -3.39689851819602       -3.33429485925371       -0.41543701624991
