  117
       -177.10960224
 C         -5.6618646974       -9.4806395534        3.2080018570
 C         -4.8785790563       -8.6287618614        2.2533150274
 C         -4.4849722311       -7.3445053510        2.6458663203
 C         -3.7651475255       -6.5096380710        1.8155895481
 C         -3.4431006959       -6.9776704597        0.5499778999
 C         -3.8041735964       -8.2810060004        0.1432955155
 C         -4.5282059882       -9.0997381374        1.0005173768
 C         -3.2601094727       -8.4610858862       -1.1737126313
 C         -3.2824233969       -9.5057755747       -2.0884685635
 C         -2.6421213923       -9.3382783649       -3.3002056447
 C         -1.9907539530       -8.1459982204       -3.6107733997
 C         -1.9561633950       -7.0907588143       -2.7198496896
 C         -2.5876346852       -7.2594154894       -1.4964387672
 N         -2.7215798699       -6.3676598931       -0.4542662404
 C         -2.1859347932       -5.0689929962       -0.4177996206
 C         -0.8035632276       -4.9091069362       -0.4754326674
 C         -0.2434693512       -3.6513133139       -0.4286948601
 C         -1.0675259538       -2.5319997426       -0.3261366512
 C         -0.4831849621       -1.1940253937       -0.2609272952
 N          0.8425807584       -1.0986205588       -0.2209716092
 C          1.3373773918        0.1335558906       -0.1530664375
 C          2.7898192489        0.2844312938       -0.0986333074
 C          3.6120247925       -0.8406727219       -0.0741537437
 C          4.9799112622       -0.6848160148       -0.0277279545
 C          5.5464324076        0.5877825626       -0.0049263525
 N          6.9452395637        0.7060391029        0.0396632392
 C          7.7453938248        1.3028432743       -0.9093945643
 C          7.3949073101        1.8558946898       -2.1326186935
 C          8.4064200791        2.3772273550       -2.9160560205
 C          9.7370203728        2.3401432027       -2.5041273809
 C         10.0944813962        1.7597389351       -1.3033568673
 C          9.0964757422        1.2286883953       -0.4970768498
 C          9.0998946323        0.5386067284        0.7627065284
 C         10.1021560979        0.1705588712        1.6514728701
 C          9.7650090588       -0.5012638647        2.8129102238
 C         10.8173059643       -0.9225049851        3.7956379181
 C          8.4224682394       -0.7918178126        3.0812353136
 C          7.4059858729       -0.4363594144        2.2182784489
 C          7.7537014445        0.2233159193        1.0489133273
 C          4.7333403884        1.7282918605        0.0019549474
 C          5.3219106681        3.1019518451        0.1072333608
 C          3.3607224879        1.5533556899       -0.0545436871
 N          0.5910388846        1.2342056691       -0.1303560597
 C         -0.7247944309        1.0464283536       -0.1771992125
 C         -1.5856297043        2.2273496761       -0.1572498847
 C         -2.9664669012        2.0961024833       -0.2915518505
 C         -3.7625744382        3.2205103430       -0.2828121875
 C         -3.1982620100        4.4859596852       -0.1368566432
 N         -4.0405407212        5.6097649271       -0.1402219765
 C         -4.0139520543        6.6450193150       -1.0487685508
 C         -3.2255802654        6.8017654525       -2.1796510012
 C         -3.4145441882        7.9377694833       -2.9428942693
 C         -4.3717713658        8.8911868812       -2.6019999465
 C         -5.1826533944        8.7223079148       -1.4972569067
 C         -5.0126964891        7.5888211717       -0.7133290653
 C         -5.6786047649        7.0790483533        0.4528045677
 C         -6.7234860083        7.5455002228        1.2405132174
 C         -7.1401048895        6.7966313219        2.3265749392
 C         -8.2704205739        7.2602109783        3.1972794529
 C         -6.4986197445        5.5885642484        2.6230659815
 C         -5.4565613690        5.1022365659        1.8602215290
 C         -5.0557283008        5.8505841625        0.7634583659
 C         -1.8157908212        4.6323155183        0.0352853356
 C         -1.2004274384        5.9759769821        0.2809920970
 C         -1.0295751750        3.4927273040        0.0102371550
 N         -1.3052856718       -0.1486734652       -0.2402631615
 C         -2.4496369384       -2.6966114999       -0.2943967434
 C         -3.0294046280       -3.9532728374       -0.3462235122
 C         -4.5192863897       -4.1082882328       -0.3602451542
 H         -5.8789525572      -10.4527024677        2.7728396065
 H         -6.6040445447       -8.9972949034        3.4646113639
 H         -5.1032592747       -9.6305450590        4.1312931454
 H         -4.7498473864       -7.0025355070        3.6361943700
 H         -3.4459630117       -5.5329463608        2.1480502394
 H         -4.8059357401      -10.0967048462        0.6915362255
 H         -3.7927159044      -10.4276997588       -1.8534903752
 H         -2.6465367227      -10.1397404032       -4.0239206587
 H         -1.5043758823       -8.0447247318       -4.5697642293
 H         -1.4576386614       -6.1649353274       -2.9659284397
 H         -0.1796240064       -5.7882286612       -0.5459855622
 H          0.8253902867       -3.5153356549       -0.4645861247
 H          3.1627650781       -1.8204559032       -0.0966503261
 H          5.6326650736       -1.5456023215       -0.0178206280
 H          6.3688624630        1.8599339992       -2.4692711964
 H          8.1619443662        2.8171529502       -3.8717885809
 H         10.4983584220        2.7605876192       -3.1441456738
 H         11.1285113256        1.7115636080       -0.9967660369
 H         11.1329835213        0.4094033967        1.4347968342
 H         10.8134943613       -2.0054417475        3.9157318914
 H         10.6259031668       -0.4795095034        4.7723883696
 H         11.8052877502       -0.6148936072        3.4629843606
 H          8.1786392553       -1.3102831729        3.9973920037
 H          6.3748773124       -0.6617220528        2.4466981608
 H          4.5965975711        3.7890701043        0.5358917249
 H          6.2137591362        3.0926278761        0.7312685212
 H          5.6099154656        3.4803940563       -0.8733848706
 H          2.7056315609        2.4111865983       -0.0530923989
 H         -3.3916865340        1.1125553552       -0.4110798554
 H         -4.8334977843        3.1383914691       -0.3993338929
 H         -2.5038481609        6.0507524868       -2.4646024517
 H         -2.8124754569        8.0873127435       -3.8271225014
 H         -4.4872798633        9.7671090142       -3.2228557299
 H         -5.9392691661        9.4510510600       -1.2482516399
 H         -7.2027677698        8.4842099997        1.0045234402
 H         -7.9380409731        7.3664960480        4.2292986540
 H         -8.6558824012        8.2177324003        2.8567459649
 H         -9.0831195323        6.5345939698        3.1831908446
 H         -6.8331352215        5.0222460025        3.4803748428
 H         -4.9680126851        4.1720515597        2.1097626485
 H         -1.8671383255        6.6033825643        0.8697563608
 H         -1.0036047647        6.4946764978       -0.6568316803
 H         -0.2579366562        5.8654986589        0.8114106020
 H          0.0395464064        3.5703610377        0.1370490825
 H         -3.0705575540       -1.8155713690       -0.2375685897
 H         -4.8972591733       -4.3348732959        0.6364686992
 H         -4.8146671921       -4.9253080090       -1.0161692029
 H         -4.9905415300       -3.1900326209       -0.7020690186
