117
 energy: -177.108008341997 gnorm: 0.000103333887 xtb: 6.7.1 (edcfbbe)
C           -5.62798770900584       -9.48245852420139        3.24369491295211
C           -4.85860181692792       -8.63737445970610        2.27394766634430
C           -4.44712953674174       -7.35464404180912        2.65787101044791
C           -3.74165116775969       -6.52486776636060        1.81095044338600
C           -3.44777099478213       -6.99777290579224        0.53770520243704
C           -3.83305367272564       -8.29846768336424        0.13621173504526
C           -4.54242890595219       -9.11076086375120        1.00864836637283
C           -3.32729715471835       -8.47455454860708       -1.19958316916825
C           -3.37663952779053       -9.51168701920076       -2.11951487141008
C           -2.76545328648069       -9.33664246734356       -3.34873477373815
C           -2.11613087315434       -8.14593823095942       -3.66836814525893
C           -2.05518442618968       -7.09636319479033       -2.77046687909128
C           -2.65886821812817       -7.27143854503171       -1.53267509788358
N           -2.75389361408751       -6.38947076254878       -0.48089456971477
C           -2.20417904413363       -5.09166601865077       -0.44918098753905
C           -0.81670837450903       -4.94385093710959       -0.45340425638247
C           -0.24775643655428       -3.69339751484770       -0.41108664510708
C           -1.06113511197039       -2.55269943998893       -0.36578690678219
C           -0.47897167039383       -1.23337337501113       -0.30266059474433
N            0.85395043233442       -1.12097185524128       -0.25068112929002
C            1.36379586720506        0.11209709717257       -0.16375590020493
C            2.79894524726298        0.26582536281867       -0.10598297999491
C            3.64061065224605       -0.85466516909746       -0.11303244562067
C            5.00442803778774       -0.69155286350611       -0.06105548083544
C            5.56432387150122        0.58528940614765       -0.00139437195390
N            6.96650915799459        0.71399617811975        0.05317153084067
C            7.77094656394279        1.26860357188276       -0.91537915346905
C            7.42342326392687        1.77712081699769       -2.15982785700941
C            8.43801476606693        2.27158864409173       -2.95843302263209
C            9.76613204415006        2.25338746487932       -2.53784269002552
C           10.12041896343154        1.72276844817684       -1.30999683038320
C            9.12069981871604        1.22034404076612       -0.48993194154439
C            9.11461642951243        0.58735378400585        0.80249538462307
C           10.10556120792562        0.26019389022019        1.71639655914635
C            9.75489337307354       -0.36211812182293        2.90590392256075
C           10.79709156558130       -0.73762465185144        3.91555788718420
C            8.40865872871415       -0.64413309361481        3.17168114932318
C            7.40199958835294       -0.32792708092478        2.28276684501811
C            7.76278148062335        0.28474390313225        1.08900795112445
C            4.74181651113647        1.72200440178800        0.03207820151044
C            5.33109331281167        3.09402389154613        0.16719462466768
C            3.37448407739197        1.54076234214611       -0.02880669838088
N            0.59901071695028        1.21135285687921       -0.12089709692495
C           -0.72559320865989        1.03617716152754       -0.19946621809533
C           -1.57929330552488        2.20258332538430       -0.17872855901577
C           -2.96949425211943        2.07440069280781       -0.29776479710690
C           -3.76736045881799        3.19363211454883       -0.28783585185270
C           -3.20543758357604        4.46398080815805       -0.15526046135492
N           -4.05398391035607        5.58893938175892       -0.15372957450090
C           -4.09511095762253        6.57547846612814       -1.11208012351416
C           -3.37226873815641        6.68372179440235       -2.29266280628766
C           -3.61431421642831        7.78237496546613       -3.09639624130339
C           -4.55737636472038        8.74540271788941       -2.74371606035193
C           -5.29934373389448        8.62785359822294       -1.58171339173934
C           -5.07473058559141        7.53453339711090       -0.75790395262607
C           -5.65600014136592        7.08108610143333        0.47794252359851
C           -6.64368947154222        7.58030055839057        1.31422853018201
C           -6.97506999297110        6.88306005253688        2.46703760686753
C           -8.03645845271176        7.39025714325850        3.39584348777426
C           -6.30643663849639        5.69087824934501        2.77366333187402
C           -5.31902756910785        5.17199232773327        1.96169468807552
C           -4.99963077459454        5.87125536482804        0.80433689530881
C           -1.81876192327015        4.61600924853355       -0.00229567514540
C           -1.21239129653875        5.96939609688742        0.21825297973407
C           -1.03079387883210        3.48225514808117       -0.02659600944562
N           -1.29424344115614       -0.17010768905958       -0.29568671728996
C           -2.45286538720405       -2.71609599456015       -0.38539000603274
C           -3.04011602823394       -3.96455667818103       -0.43117347380448
C           -4.53066365284525       -4.11442849318793       -0.49116114449544
H           -5.85320967376321      -10.45717202659540        2.81894224961159
H           -6.56487710755550       -8.99384184915468        3.51054951200543
H           -5.05653322165303       -9.62432819484782        4.16049636120254
H           -4.68890685472518       -7.00956686911924        3.65291952424785
H           -3.41520393679151       -5.54550170620040        2.12844676957104
H           -4.84027283716004      -10.10371920337519        0.70588586887939
H           -3.88242221962452      -10.43498655655426       -1.88035863735929
H           -2.79202965715067      -10.13390092244154       -4.07683206344133
H           -1.65249458933936       -8.03996633799826       -4.63817654625621
H           -1.55715482113609       -6.17067622406924       -3.01810498755894
H           -0.19706349548206       -5.82894396826589       -0.47990844102832
H            0.82364964433883       -3.56798153828487       -0.40646252040538
H            3.19761585471375       -1.83696250843394       -0.16350672971082
H            5.66129336143547       -1.54965553097095       -0.07461257237612
H            6.39669307821809        1.77216829523701       -2.49486683738238
H            8.19672162228284        2.67642916311749       -3.93040238485987
H           10.53051041241575        2.65154846030839       -3.18866689070161
H           11.15326707703350        1.69543885918758       -0.99706609306826
H           11.13913198730743        0.48908751084691        1.50265141088882
H           10.79774867763752       -1.81572192058987        4.07513825754232
H           10.58720044420509       -0.26223754976048        4.87325391615642
H           11.78731633268500       -0.43479853322786        3.58549528098361
H            8.15482978280451       -1.12422136608966        4.10583819084030
H            6.36759718727405       -0.54638479001357        2.50313581187552
H            4.56370526311471        3.80496120386394        0.46164467253718
H            6.12338968881549        3.09883356881569        0.91449976916728
H            5.76413708063385        3.42699286364204       -0.77561869155990
H            2.71216578164643        2.39297994852928       -0.00392776379664
H           -3.39300387561977        1.08828937465524       -0.40570683897088
H           -4.83936940082822        3.10513971069598       -0.39219955765731
H           -2.65624755703193        5.92701505466157       -2.57728568587340
H           -3.06415755491189        7.89420657624026       -4.01924265056291
H           -4.71673291600181        9.59083655728647       -3.39658384871204
H           -6.04117308471333        9.36790897199292       -1.32194694602512
H           -7.14702337902171        8.50388179528557        1.06941398414163
H           -7.61863101459683        7.57034134033588        4.38606783869085
H           -8.46774100595737        8.31694238148576        3.02644575621637
H           -8.83187625100580        6.65308421674267        3.50191288153844
H           -6.57481903066541        5.16445360375223        3.67834126003996
H           -4.80843805375246        4.25465104862805        2.21421831760784
H           -1.81071396524616        6.54771626771515        0.92088699849841
H           -1.16215437207418        6.53131581160199       -0.71394525919432
H           -0.20438496463224        5.86916400489697        0.61193362461987
H            0.03962786172219        3.56267995383690        0.08872100026586
H           -3.06590657299638       -1.82741376415996       -0.37210719471521
H           -4.92558547800219       -4.45671838014402        0.46495642107386
H           -4.81209873278474       -4.84719165550630       -1.24630785796445
H           -4.99490617048698       -3.16208233662671       -0.73313588956837
