117
 energy: -177.184711527648 gnorm: 0.000029372248 xtb: 6.7.1 (edcfbbe)
C           -5.60777791340680       -9.46260965514364        3.26639196104629
C           -4.84253820414459       -8.61599006448716        2.29186211442327
C           -4.42834965195545       -7.33482538101057        2.67442648808242
C           -3.72733903666557       -6.50308576092031        1.82437933277218
C           -3.44498615954827       -6.97060615473528        0.54894230388131
C           -3.82513693211060       -8.27122951394023        0.15140707884463
C           -4.53027582292406       -9.08666076544979        1.02826685881259
C           -3.31809061109882       -8.45378246857404       -1.18082908663293
C           -3.37180050731982       -9.49804582830473       -2.09544347952272
C           -2.76269586769270       -9.33466110914974       -3.32420383574216
C           -2.11179210519540       -8.14646797391986       -3.65198905262950
C           -2.04729122765194       -7.09145030604711       -2.76168591234270
C           -2.64606500293532       -7.25634874471537       -1.52106697765327
N           -2.74743186419749       -6.36302319111889       -0.47540347127857
C           -2.20157289944300       -5.06865834552316       -0.44983264311170
C           -0.81927908051427       -4.91779573250081       -0.53917397504292
C           -0.24775053196886       -3.66443691225940       -0.50077296508916
C           -1.06005211087906       -2.53817820549457       -0.37523060531318
C           -0.46902737238395       -1.20280840196088       -0.31180146134883
N            0.85808807828737       -1.10915066325295       -0.27516022089069
C            1.35279574516283        0.12376493007160       -0.19245480017544
C            2.80477438950963        0.27780227504605       -0.12955873081697
C            3.63331844588958       -0.84325906346180       -0.10084785559293
C            5.00035606291658       -0.68062434890285       -0.04213546512414
C            5.56176819917586        0.59448387290244       -0.00998069869010
N            6.95962081849304        0.71843067665666        0.04729521668336
C            7.76749407517226        1.31011787524185       -0.90016080457989
C            7.42621444456048        1.86094080559923       -2.12731241035910
C            8.44387405928920        2.37795106767729       -2.90654638779735
C            9.77211212895795        2.33842493336999       -2.48667123836474
C           10.12069376971494        1.75982216635241       -1.28197994657659
C            9.11606936638305        1.23420778881735       -0.47951925446705
C            9.11069255703385        0.54893372630520        0.78365436751539
C           10.10737716254577        0.18584962914900        1.68139285025686
C            9.76345127837691       -0.47881401206456        2.84564318678879
C           10.81006373139003       -0.89113729450843        3.83906407912446
C            8.41855863318817       -0.76769863733183        3.10620310877828
C            7.40754033912080       -0.41670979964677        2.23422647968279
C            7.76236333791976        0.23656602188743        1.06306635097943
C            4.74284413445976        1.73223089419122       -0.00688854843145
C            5.32113171694367        3.10875389441903        0.11127089615372
C            3.37167508808899        1.54927910799265       -0.07724899022523
N            0.60629204664825        1.22519644170440       -0.15859980933439
C           -0.71037778679403        1.03880680404694       -0.21230516182714
C           -1.57202486916607        2.21895153973130       -0.18607326719512
C           -2.95264096203731        2.08816274106137       -0.33125739586107
C           -3.75068114553368        3.21115854259654       -0.31294803802081
C           -3.19012164640204        4.47626169529333       -0.14743821964305
N           -4.03543317967354        5.59789331553953       -0.14238345188441
C           -4.01928966229203        6.63333656177934       -1.05226331238250
C           -3.23640789366147        6.79429318104729       -2.18667205521777
C           -3.43598735508902        7.92838404932982       -2.95090078649095
C           -4.39834712368252        8.87591489206200       -2.60690675014157
C           -5.20309762039269        8.70312056251530       -1.49774078304944
C           -5.02230206880815        7.57137019315103       -0.71283252768371
C           -5.67963056245192        7.05870237802499        0.45788869959246
C           -6.72104596829320        7.52210131437062        1.25280020206468
C           -7.12789172423475        6.77360168182714        2.34356599060711
C           -8.25332522130129        7.23531912629491        3.22247210270552
C           -6.48023060887979        5.56727269098066        2.63536298662090
C           -5.44135227477693        5.08401035951787        1.86543709237961
C           -5.04935492624715        5.83317189862481        0.76573451113075
C           -1.80802193573147        4.62337468604236        0.03409175621248
C           -1.19545531046193        5.96421504608014        0.29868455458645
C           -1.02040077073623        3.48444757584024        0.00024429052752
N           -1.29123616943619       -0.15649635501007       -0.28469824810419
C           -2.44286630955731       -2.69473114714485       -0.31186938797983
C           -3.03530300001088       -3.94605899385888       -0.35407291515878
C           -4.52637957864630       -4.08435362813470       -0.33231139865036
H           -5.83213840399228      -10.43784968802316        2.84183908825489
H           -6.54566589348702       -8.97714930543565        3.53568543742651
H           -5.03282569506984       -9.60494535535475        4.18100347038432
H           -4.66207056513255       -6.99134603740611        3.67228651034823
H           -3.39389843778092       -5.52834804272923        2.14906476296784
H           -4.82383108952595      -10.08114095528483        0.72527168725707
H           -3.88187659766837      -10.41711342178883       -1.84804630093103
H           -2.79154010927965      -10.13644441489162       -4.04758699835513
H           -1.64995367708814       -8.04747058893255       -4.62371499523844
H           -1.54926142441520       -6.16885906198004       -3.02154341646836
H           -0.20170265807465       -5.79965969965806       -0.62745775032330
H            0.82127695077456       -3.53776222064189       -0.56056015229243
H            3.18995961633136       -1.82561081739668       -0.12962182283893
H            5.65444790098285       -1.54015788004882       -0.02857134686963
H            6.40212279754646        1.86863655482972       -2.47024988928886
H            8.20571844284434        2.81664375165145       -3.86483047245991
H           10.53897254581770        2.75520273482627       -3.12315188246049
H           11.15318410459937        1.70992734391404       -0.96970548192472
H           11.13958380125297        0.42426626134376        1.47005401107810
H           10.79789735124317       -1.97202897631277        3.97744889261421
H           10.61804614979038       -0.43015306436489        4.80766455645711
H           11.80125620685677       -0.59564252008431        3.50456584615246
H            8.16724855175866       -1.28110929791828        4.02352058571569
H            6.37482312338476       -0.64137070570013        2.45735333186817
H            4.57251171623433        3.79852956616599        0.49185534629147
H            6.17870925913743        3.10838492902686        0.78162693300225
H            5.66055327338635        3.47405444028430       -0.85736697107337
H            2.71214796359949        2.40341660590765       -0.07793652415887
H           -3.37605005525425        1.10613825204075       -0.46763367883812
H           -4.82036970055924        3.12581518616594       -0.43650557910490
H           -2.50880044185335        6.04898384541162       -2.47232385292513
H           -2.83791738675196        8.08107158014340       -3.83773181633400
H           -4.52266458005942        9.75065729162062       -3.22840180243367
H           -5.96357071129823        9.42763957969001       -1.24708571967556
H           -7.20514971053374        8.45907838046040        1.01900438643652
H           -7.91790999367645        7.32611237586061        4.25518908765455
H           -8.63250203893112        8.19972623355541        2.89412099858254
H           -9.07134773163271        6.51541597099828        3.20112929202257
H           -6.80633734783378        4.99898052953258        3.49496366309008
H           -4.94959095975779        4.15459487040138        2.11217514132579
H           -1.85750699605853        6.57501063221548        0.90966254960183
H           -1.01651367518719        6.50175854583163       -0.63193965570171
H           -0.24474395876326        5.84705034356947        0.81215599878630
H            0.04722382156892        3.56185423122432        0.13734098681399
H           -3.05503284380343       -1.80908625632060       -0.23699054322695
H           -4.87949832406541       -4.32724821702525        0.66937066200915
H           -4.84751012329366       -4.88406497629561       -0.99730733632514
H           -4.99431019357796       -3.15386572271444       -0.64253392139265
