117
 energy: -177.184693960722 gnorm: 0.000061501588 xtb: 6.7.1 (edcfbbe)
C           -4.11659252125433      -10.29342425210939        2.93130407168449
C           -3.48885028235877       -9.31342226486736        1.98379067176097
C           -3.26197435450511       -7.99834982019316        2.40622269790833
C           -2.68558583877348       -7.05017233016315        1.58483969341629
C           -2.33759200935307       -7.43443741911304        0.29781883651336
C           -2.52711246304717       -8.76374155780473       -0.13955223660270
C           -3.11045727541340       -9.69693994005630        0.70880433028472
C           -1.99329052641202       -8.83357336335174       -1.47200029487012
C           -1.89078983611357       -9.84875578457640       -2.41477392224225
C           -1.30145651893390       -9.56613260205124       -3.63144934945728
C           -0.82489823303607       -8.28841290362881       -3.92009131254260
C           -0.91898103486153       -7.26009511589286       -3.00163660482177
C           -1.49721565775517       -7.54338428941876       -1.77270711725181
N           -1.73067414082922       -6.70388510095240       -0.70366612246080
C           -1.38114614558694       -5.34458493737580       -0.64015285381899
C           -0.03622377547292       -4.98916067342329       -0.71921537668911
C            0.34380724227984       -3.66643752439685       -0.64701283474610
C           -0.62586925920932       -2.67611473226746       -0.49588746221957
C           -0.23840591637274       -1.26984994649945       -0.40228276246491
N            1.06006609420748       -0.98316686387996       -0.34801764779821
C            1.36782776379190        0.30751648643596       -0.24284237421589
C            2.78153479028033        0.67132719877898       -0.17341734057043
C            3.76605889484512       -0.31592007761007       -0.19551857937176
C            5.09503490642131        0.04368509043659       -0.14324464060208
C            5.46402753734365        1.38545893287094       -0.06533150095685
N            6.82934609514279        1.71105146310691       -0.02062102189807
C            7.52208950367126        2.45499583437208       -0.95202496739221
C            7.07850643416706        3.00050276776446       -2.14846020168897
C            7.99350811448257        3.69280897189610       -2.91896193117196
C            9.32216105002125        3.82968365212656       -2.52130722322978
C            9.77643583924750        3.25888479876239       -1.34851934434277
C            8.87584457172847        2.55973122963560       -0.55501489095978
C            8.99702860445601        1.82846846208731        0.67621700615256
C           10.05460806813165        1.57851588643243        1.54231334621413
C            9.83662583399926        0.82034254173347        2.67945947721916
C           10.95249421076659        0.52627825037933        3.63888382508898
C            8.55480784805525        0.32396500080635        2.94501655016587
C            7.48515152717661        0.55952612538781        2.10474684601325
C            7.71532469560381        1.30849564880445        0.96003230301909
C            4.48712374104409        2.38901650465728       -0.00704054264949
C            4.85764270484436        3.83042474121312        0.16160081351909
C            3.15660227730177        2.00926471065910       -0.07375241817995
N            0.46736411925412        1.28688467502611       -0.19981051121248
C           -0.80690250920907        0.91039955313777       -0.27567145790443
C           -1.83272150346137        1.95123655201240       -0.25286535771394
C           -3.17473058705334        1.62273231680151       -0.44084810138998
C           -4.12911760070405        2.61649924550193       -0.43139019995907
C           -3.76440238609780        3.94700075997182       -0.23451306651930
N           -4.76442665778132        4.93336698419440       -0.24175512958910
C           -4.87816581770704        5.97083535485080       -1.14225805562743
C           -4.09881287921713        6.25931973594987       -2.25356272468097
C           -4.44434483276504        7.36053021596891       -3.01379127322641
C           -5.54530987878448        8.15083889980112       -2.68893038157888
C           -6.34310561893147        7.84848960788879       -1.60276705239127
C           -6.01682047188888        6.74682235367885       -0.82205150547849
C           -6.61951098010691        6.13001691837076        0.32763213893645
C           -7.73636806342604        6.42630749285765        1.09969081386621
C           -8.05402758179658        5.61412920268911        2.17437351977444
C           -9.25435529037945        5.89670748878444        3.02967797034560
C           -7.24317285295325        4.51267799622865        2.47313398123413
C           -6.12643238037002        4.19609533957830        1.72593272721680
C           -5.82340370166353        5.00687105141991        0.64192175419561
C           -2.42419604435278        4.29141840110675       -0.01116031911067
C           -2.02127998109255        5.70392493325942        0.28130906643975
C           -1.47763106103232        3.28032428801240       -0.03429556362839
N           -1.20536529715768       -0.35576868305873       -0.37284421955613
C           -1.97045078146112       -3.03657971082460       -0.44195203259881
C           -2.37156955198401       -4.36006044617947       -0.51917631940117
C           -3.82561162616426       -4.71831039316978       -0.51038777300870
H           -4.30128493949928      -11.24533562767436        2.43988540236183
H           -5.06184743312339       -9.90725784384112        3.31080178149452
H           -3.46173934450527      -10.46678887469013        3.78546574915551
H           -3.54323211373278       -7.72184043028812        3.41259918259683
H           -2.49440185093948       -6.04815301789098        1.93999603623167
H           -3.25782534825162      -10.71391636604405        0.37568342986190
H           -2.26648110711735      -10.83757638772541       -2.19774849680482
H           -1.20965989091196      -10.34338280610708       -4.37602684654329
H           -0.37429056075592       -8.09774827708099       -4.88338432900748
H           -0.55583970699025       -6.26901694438103       -3.23116465539354
H            0.70496684098194       -5.76742988886563       -0.82759526616428
H            1.38234243930330       -3.38158854404700       -0.69961558704662
H            3.47124508538868       -1.35098462869965       -0.26017776544036
H            5.86822486383233       -0.71008100952266       -0.17133593791298
H            6.05729669724947        2.87219564406335       -2.47564462883308
H            7.67381678282017        4.13157812408951       -3.85315501549957
H           10.00684439153994        4.37969668109636       -3.15030120344821
H           10.81173750521680        3.34673831387945       -1.05446564873729
H           11.03580951592868        1.97618601831222        1.32775845092389
H           11.08787525076136       -0.54954029163102        3.74692183569086
H           10.72382263968310        0.93270192816416        4.62389788459873
H           11.88705221129033        0.96072965056656        3.29314278650364
H            8.40092473943933       -0.26064170364747        3.84101144372968
H            6.50183722307348        0.17457700858464        2.33190880350818
H            4.03290323566153        4.37901440353522        0.60897097156405
H            5.73708560350556        3.93023303211680        0.79493609089934
H            5.08933874007486        4.28826218076609       -0.79949035527179
H            2.37924834051632        2.75675966829272       -0.03458649873931
H           -3.44543062071093        0.59177370009826       -0.60289101043592
H           -5.17104839924239        2.37790681138365       -0.58717515018161
H           -3.26132158445331        5.63377827524248       -2.52508797214886
H           -3.85293753982779        7.61031948995731       -3.88287115593398
H           -5.78185218869104        9.00480176745822       -3.30676774030995
H           -7.20830025617083        8.45003437140202       -1.36679032886557
H           -8.34731066245983        7.28475465030890        0.86133188900958
H           -8.95600884544322        6.04441511070404        4.06728976250552
H           -9.77424155636076        6.78807340188414        2.68778370398989
H           -9.94821389416402        5.05683277022552        2.99993781460717
H           -7.50248969345409        3.89329110393069        3.32007141972778
H           -5.50852409548967        3.34672238579155        1.97778131948553
H           -1.08159327489972        5.72046732006669        0.82719181251415
H           -2.78497172880950        6.20770231683557        0.87084198684703
H           -1.88987502512586        6.26938635529234       -0.64072384413606
H           -0.43704538341236        3.51092566079310        0.13477199780094
H           -2.70680228045818       -2.25332884611537       -0.34686294178684
H           -4.13592850330015       -5.06172685118641        0.47587944401827
H           -4.02595351524718       -5.52271480752636       -1.21599842998242
H           -4.42759150420323       -3.85350193043911       -0.77618871217333
