117
 energy: -177.107997976051 gnorm: 0.000043297414 xtb: 6.7.1 (edcfbbe)
C           -5.56074250536340       -9.56807682104381        3.18887921428351
C           -4.75608017251628       -8.72403479921824        2.24731596837654
C           -4.39242787390462       -7.42630924566343        2.62912409240485
C           -3.65755323323675       -6.59706688630982        1.80707363838174
C           -3.28512427713244       -7.08588617081794        0.56068008857818
C           -3.61960869833730       -8.40197420556125        0.16396876048684
C           -4.35970714218346       -9.21357490214479        1.01114214157459
C           -3.03984191501634       -8.58982215862275       -1.13977382207585
C           -3.01744386958294       -9.64388217419996       -2.04138016584346
C           -2.34893922132427       -9.47525424085774       -3.24129086611107
C           -1.71272499260956       -8.27460734903912       -3.54992871810041
C           -1.72203211758292       -7.20852276556925       -2.66966050228274
C           -2.38306356912834       -7.37700099732447       -1.46060894374375
N           -2.55234064595601       -6.47940827309541       -0.43150983081756
C           -2.04170614768619       -5.16585759160721       -0.39927695135734
C           -0.66039918925239       -4.97679407817451       -0.34346682390246
C           -0.13051016927327       -3.70915264207552       -0.30171293245747
C           -0.97780331821510       -2.59274222160121       -0.31483257982749
C           -0.43739780864342       -1.25515195525674       -0.25547949496768
N            0.89133608716234       -1.10152604284374       -0.19567389550582
C            1.36176429225438        0.14848720657089       -0.12244976750470
C            2.79153807077665        0.34902994537975       -0.06896724655117
C            3.66991734189301       -0.74273802728369       -0.08424763886034
C            5.02797508265602       -0.53403683428210       -0.04502033834554
C            5.54539970580828        0.76076527202732        0.01128996349611
N            6.94308301410646        0.93699236080578        0.04269346944060
C            7.70830898526763        1.51874508331068       -0.94167613746482
C            7.31692707799815        2.02034724559548       -2.17579780273685
C            8.29737467761017        2.54846628662954       -2.99518361031321
C            9.63469923727085        2.56938104404916       -2.60494907749691
C           10.03303278255896        2.04593487547741       -1.38757413663861
C            9.06806426323639        1.51063924143028       -0.54691401474354
C            9.11038746275812        0.87386267946025        0.74296703687638
C           10.13145593752745        0.57398778637454        1.63272097020118
C            9.82708806685774       -0.06192370530130        2.82774904298630
C           10.90308418555705       -0.40737250334206        3.81237514847169
C            8.49629858306752       -0.38452462453715        3.12353373120165
C            7.46050673147652       -0.09675747510041        2.25871600781193
C            7.77513763941237        0.52938398714591        1.05890695331164
C            4.68573248007114        1.86911593380185        0.05732007021504
C            5.22945640453058        3.25993063769048        0.19182092469400
C            3.32472299600485        1.64218454630894        0.00768805848057
N            0.56308749809063        1.22275045615247       -0.09362096172206
C           -0.75570485598307        1.00625570229577       -0.17326734006873
C           -1.64432358933744        2.14566274310318       -0.16306106272612
C           -3.03212927874233        1.97361063029560       -0.25201365212303
C           -3.86318610973439        3.06862080533279       -0.25003982179347
C           -3.33735648791998        4.35778158167351       -0.15857734378399
N           -4.21853644079337        5.45788344988767       -0.16369019134414
C           -4.31746057508349        6.41137519560400       -1.15055166001790
C           -3.63637460099045        6.49888082447912       -2.35737978220282
C           -3.93409758149241        7.56345888669308       -3.18777768458588
C           -4.89050107883121        8.51311610967677       -2.83465239473593
C           -5.58994541277070        8.41581872448481       -1.64469942504580
C           -5.30948006226116        7.35660207640440       -0.79395592539661
C           -5.83709166101651        6.92910149989132        0.47479009347315
C           -6.80980178312755        7.42965198411379        1.32764720654854
C           -7.08555486923825        6.76101997361850        2.51170768590313
C           -8.13284441247161        7.26782376593442        3.45659025586964
C           -6.37709506933419        5.59575517573813        2.83211695568664
C           -5.40308893285809        5.07646314674456        2.00434727800460
C           -5.13889921187690        5.74704459701626        0.81647979960565
C           -1.95278404857864        4.55473182566605       -0.04091918871134
C           -1.38418040386063        5.93162133394284        0.12854896742324
C           -1.13177414901808        3.44482788403091       -0.05339553527592
N           -1.28540932748673       -0.21875040376069       -0.26234502383220
C           -2.36177843117593       -2.79785199844874       -0.39262821883926
C           -2.90980557452714       -4.06390889367397       -0.44213391670280
C           -4.39059991861591       -4.25888405784556       -0.57212772746477
H           -6.51709491168726       -9.09095865114203        3.40193376901364
H           -5.03379267310203       -9.68888350182816        4.13495866432768
H           -5.74924284003187      -10.55187375746130        2.76718072548377
H           -4.69617070821013       -7.06881363204567        3.60256411680078
H           -3.36869048038614       -5.60557870021494        2.12333450307845
H           -4.62020412707364      -10.21787087057490        0.71140147847476
H           -3.51329469158543      -10.57477758623888       -1.81102920928192
H           -2.31967612952541      -10.28530700605002       -3.95499883675041
H           -1.20395943171744       -8.17392898004834       -4.49739122491976
H           -1.23430951507898       -6.27524655794106       -2.90910901015222
H           -0.01459499655463       -5.84315399398290       -0.32392404514663
H            0.93548559223120       -3.55152998989948       -0.25192973399186
H            3.25966010430033       -1.73919944191246       -0.13368571939731
H            5.71329658778753       -1.36937745594863       -0.06758129129411
H            6.28342612682246        1.98457369221094       -2.48725351502430
H            8.02168160598540        2.94893848954041       -3.95977773605654
H           10.37156957633956        2.99248867130984       -3.27157408775048
H           11.07307917524192        2.04914360218730       -1.09826408985323
H           11.15249535500333        0.83440638844076        1.39608093645092
H           10.92533198082501       -1.48279148574341        3.98710880530974
H           10.71274319134528        0.07868559445617        4.76890596478077
H           11.87863335894776       -0.09354039515086        3.45037742770614
H            8.27844820884105       -0.87404714777284        4.06188511888052
H            6.43852236029092       -0.34691014541296        2.50195056301388
H            5.62472688671372        3.61763144342046       -0.75853850464848
H            4.44530304575053        3.94008529822222        0.51373246293844
H            6.04069705393570        3.28605890836476        0.91795988591809
H            2.63443360224889        2.47159355798604        0.04051165202225
H           -3.42777397873504        0.97298904913355       -0.32798314293023
H           -4.93402882514516        2.94587589453430       -0.32863391454981
H           -2.90970871271848        5.75171173249563       -2.64034656361666
H           -3.41780145852029        7.65874908983879       -4.13178129810242
H           -5.09406218810051        9.33185812965965       -3.50888084828140
H           -6.34185125969623        9.14534601211902       -1.38412730481876
H           -7.34480438825749        8.33208526061928        1.07123076096501
H           -7.70743092025936        7.42445927741429        4.44724213027945
H           -8.55429744662552        8.20590417598128        3.10506767040962
H           -8.93830844140112        6.53995788249471        3.55403823551773
H           -6.60291093139453        5.09118580498050        3.76055320790342
H           -4.86148217485072        4.18009820781678        2.26736892723451
H           -1.40164018836298        6.47937502681346       -0.81321499785606
H           -0.35484175584942        5.87342831578985        0.47214216294394
H           -1.96693336705527        6.50008382316453        0.85214275249453
H           -0.06204827071927        3.55960343767304        0.03629800515825
H           -3.00022033824213       -1.92778704749356       -0.42549351075458
H           -4.61218682198378       -5.01650581263305       -1.32264801723002
H           -4.86879862424505       -3.32641345222031       -0.85996886510309
H           -4.82363694575807       -4.59089037560744        0.37102563061958
