  99
       -149.82665743
 C          0.0620019382       -5.8414979911       -0.0176391734
 C          0.0453070442       -4.3464106914       -0.0259386911
 N          1.2003838277       -3.7334493975       -0.1795905137
 C          1.2014047280       -2.3545808946       -0.2230317626
 N          2.3709373412       -1.6325168820       -0.4596807869
 C          3.5317856543       -1.8160632442        0.2816794778
 C          3.8516274098       -3.0670938348        0.8102804680
 C          5.0369704705       -3.2439393268        1.4933921122
 C          5.9052034572       -2.1775231752        1.6706808337
 C          5.5768658305       -0.9266710339        1.1722646372
 C          4.3955825907       -0.7271302092        0.4781595383
 C          3.9444480594        0.6401962916        0.0074544162
 C          2.8682800030        1.1956503254        0.9460185531
 C          2.4704375457        0.5358972600        2.1002908429
 C          1.4291440975        1.0290311441        2.8688911929
 C          0.7720992170        2.1878696467        2.5005379530
 C          1.1804302970        2.8684602146        1.3653415062
 C          2.2168286683        2.3744622315        0.5955316389
 C          5.1401991814        1.5624946909       -0.1161667365
 C          6.0801768272        1.3050627238       -1.1104599649
 C          7.2034026180        2.0989681589       -1.2416131154
 C          7.4101898224        3.1590466967       -0.3738236322
 C          6.4902073131        3.4105793595        0.6278808844
 C          5.3633150922        2.6157828095        0.7590784300
 C          3.2145924828        0.4661241218       -1.3119345570
 C          3.2494519034        1.4021774602       -2.3303023104
 C          2.4600489401        1.2551085646       -3.4598519971
 C          1.6056004576        0.1641384196       -3.5696682153
 C          1.5530590304       -0.7760991753       -2.5666649025
 C          2.3609181398       -0.6437659551       -1.4314930182
 C          0.0296501270       -1.6486477535        0.0059947342
 C         -1.1368457475       -2.3751917154        0.2039588458
 N         -2.3204585259       -1.6718319447        0.4315959943
 C         -2.3579657477       -0.7476993102        1.4640710098
 C         -1.6201221620       -0.9650158007        2.6326334685
 C         -1.7214215929       -0.0875474784        3.6881285793
 C         -2.5368538885        1.0339755630        3.5899400701
 C         -3.2561258252        1.2645134236        2.4278089168
 C         -3.1883627768        0.3815911349        1.3649762151
 C         -3.9064476475        0.6114787770        0.0532207216
 C         -5.0887560354        1.5359133835        0.2686963874
 C         -5.1394146962        2.8223138083       -0.2479021476
 C         -6.2323136833        3.6361616195        0.0026960551
 C         -7.2835662145        3.1773930371        0.7754649538
 C         -7.2346416655        1.8984479217        1.3064044234
 C         -6.1446124306        1.0869153940        1.0578885978
 C         -2.9222752270        1.1571674511       -0.9868519213
 C         -1.6431476617        1.5766124598       -0.6462354293
 C         -0.7626773759        2.0139613346       -1.6218424515
 C         -1.1523985089        2.0575114452       -2.9472980730
 C         -2.4325697423        1.6595543641       -3.2939840437
 C         -3.3058523016        1.2063982438       -2.3233392026
 C         -4.3410029127       -0.7403943444       -0.4869483969
 C         -5.5107854701       -0.9216079056       -1.2055744459
 C         -5.7945302397       -2.1368402720       -1.8083027811
 C         -4.8905328460       -3.1840011951       -1.7148105459
 C         -3.7210903097       -3.0277256348       -1.0011737725
 C         -3.4486787969       -1.8162474780       -0.3636745999
 N         -1.1166952291       -3.7533695967        0.1301444698
 H          0.7453273119       -6.2094570134       -0.7782278336
 H         -0.9395734875       -6.2238070495       -0.1886841834
 H          0.4121448794       -6.1911570970        0.9524682147
 H          3.1602315995       -3.8821955507        0.6629669888
 H          5.2838385083       -4.2156651794        1.8940448298
 H          6.8282833980       -2.3117965879        2.2139488555
 H          6.2404555895       -0.0924967994        1.3445445582
 H          2.9713451839       -0.3679909101        2.4128130692
 H          1.1302329031        0.4971381415        3.7590432094
 H         -0.0508795017        2.5589926937        3.0929883075
 H          0.6843871959        3.7830194717        1.0739262422
 H          2.5271736524        2.9097314826       -0.2903511221
 H          5.9252205055        0.4730046845       -1.7827448826
 H          7.9215932076        1.8885587554       -2.0205645676
 H          8.2876245685        3.7805291868       -0.4749238590
 H          6.6491996328        4.2277289687        1.3164063686
 H          4.6589233142        2.8169488700        1.5527003579
 H          3.9033297335        2.2583171305       -2.2461228216
 H          2.5070457251        1.9919435852       -4.2471344854
 H          0.9858994051        0.0457269230       -4.4454529637
 H          0.9040682537       -1.6344011883       -2.6516918830
 H          0.0242884073       -0.5689539793        0.0187112956
 H         -0.9936564117       -1.8417597788        2.6996870811
 H         -1.1724975999       -0.2768198532        4.5984025374
 H         -2.6105632042        1.7263567799        4.4146598728
 H         -3.8751643180        2.1458132695        2.3480378178
 H         -4.3219244161        3.1968776823       -0.8459677669
 H         -6.2581651035        4.6350494737       -0.4080552320
 H         -8.1353202748        3.8129543615        0.9676186331
 H         -8.0474570829        1.5337619274        1.9172637155
 H         -6.1045598201        0.0920702021        1.4787658961
 H         -1.3222107905        1.5730588052        0.3857446335
 H          0.2343377982        2.3170551870       -1.3393184411
 H         -0.4635920907        2.4020229496       -3.7035086808
 H         -2.7520373203        1.6960356930       -4.3253435190
 H         -4.2988438035        0.8891579870       -2.6057994273
 H         -6.2075973887       -0.1019592558       -1.3057321022
 H         -6.7108211402       -2.2567808696       -2.3663783179
 H         -5.1000009994       -4.1252323899       -2.2004517251
 H         -3.0097554833       -3.8331723470       -0.9071794608
