113
 energy: -182.760804787143 gnorm: 0.000069096338 xtb: 6.7.1 (edcfbbe)
C           -8.67393091238668       -1.23716633705951       -4.47765423352303
C           -8.19145769197310       -0.10430562804195       -3.82530649499403
C           -7.20613030382800       -0.19169235346931       -2.86004752612431
C           -6.71293993747310       -1.45110960706161       -2.54906329376211
C           -7.17924361739483       -2.60362382603721       -3.22285687940764
C           -8.16992289798602       -2.49012429926587       -4.19010789147688
C           -6.43269866470170       -3.71394451512414       -2.69915243743677
C           -6.44908972310263       -5.08042760852672       -2.94855733283644
C           -5.59159703397631       -5.89433706590674       -2.23492615796156
C           -4.73611076161798       -5.36377541981368       -1.27138610377220
C           -4.70249875822182       -4.00802958774270       -1.00517778414719
C           -5.54348441508306       -3.18189414889823       -1.73728794760567
N           -5.72391275763211       -1.81471129804823       -1.65464318600994
C           -5.01212193264778       -0.94581828117744       -0.81611669247749
C           -3.62206952522694       -0.98049378122067       -0.79934734039386
C           -2.91110415351677       -0.10844759457971        0.01900823911606
C           -1.44440389839171       -0.11730641624585        0.01725393165604
C           -0.70509185241120       -1.27866448497955        0.00909301215098
C            0.69820712019003       -1.28235672449720        0.01196498286124
C            1.44375921896405       -0.12518823614242       -0.01257673328167
C            2.91046258607017       -0.12441781593141       -0.01469009078667
C            3.60381052833179        0.75850419921002       -0.83512703893967
C            4.99324759985038        0.79207905672474       -0.81627943983112
N            5.67984790075518        1.69534683624514       -1.63536701859519
C            5.39161442871585        3.04271481084059       -1.76251238397764
C            4.43253838399727        3.80798099290811       -1.11333988961312
C            4.37554184650013        5.15657393824064       -1.41149897958547
C            5.25371783053450        5.74017119037826       -2.32267629922003
C            6.22479222900209        4.98781427788214       -2.95319052030640
C            6.30082114939566        3.62938310684213       -2.67218399248158
C            7.17003779948926        2.57644736293570       -3.11981252691225
C            8.22941827953344        2.53100870526530       -4.01701747578800
C            8.85119249468083        1.31961546632055       -4.24679375134065
C            8.41762957933581        0.16055892968755       -3.60666072244875
C            7.36569224309430        0.18097444256193       -2.71020164421069
C            6.75390847664738        1.40022749389874       -2.45422550833027
C            5.69762336768177       -0.07005265354825        0.01819643100413
C            5.00711425628542       -0.96399836402126        0.82921957423439
N            5.71427286042456       -1.82769903772864        1.67699463649480
C            6.70588496611521       -1.46035121866433        2.56698383465497
C            7.20687726680237       -0.20063571997328        2.86399185011281
C            8.19339039992426       -0.10874945021642        3.82762706476909
C            8.66955604534892       -1.23739994946986        4.49180925819750
C            8.15789208506468       -2.49034775729169        4.21809140342491
C            7.16585656638574       -2.60833423129101        3.25277386416582
C            6.41275782372718       -3.71983771152880        2.74111396759063
C            6.42163081420220       -5.08374225065454        3.00466168596489
C            5.55931891365310       -5.90021812181024        2.29981152738755
C            4.70638549997418       -5.37492377363899        1.33112550021108
C            4.68022435656735       -4.02183427563689        1.05089961960056
C            5.52614624918719       -3.19287720972058        1.77407411747341
C            3.61688539354021       -0.99087170449882        0.81352973228558
C            0.72239343261118        1.09231304718920       -0.02445406392676
N            1.22168615943482        2.33042262676200       -0.03872246786795
S            0.00884707190673        3.38359282710205       -0.02299604020973
N           -1.20948259529055        2.33712144667028        0.00794138707032
C           -0.71660697205329        1.09636649370048        0.01186009083427
C           -3.59964481173303        0.78805822023049        0.82866428076792
C           -4.98885548461345        0.82912125935780        0.80893710592301
N           -5.67065991790013        1.74608837982777        1.61674978591016
C           -6.74629452175652        1.46702851592709        2.43909780805510
C           -7.36447292757307        0.25430865722381        2.71026265774055
C           -8.41661799346588        0.25071505984221        3.60668671965351
C           -8.84408388503535        1.41998955897171        4.23217354215514
C           -8.21607502869462        2.62516719772734        3.98712302325242
C           -7.15640546775862        2.65379546962453        3.08955137008935
C           -6.28185654983171        3.69647178731135        2.62842657347514
C           -6.19901758681859        5.05808614098438        2.89156958310923
C           -5.22418427029833        5.79722885584586        2.25127289734782
C           -4.34897422449479        5.19738192693890        1.34782288503592
C           -4.41274626215895        3.84531892239943        1.06733262738489
C           -5.37566801669855        3.09349835146981        1.72643710442004
C           -5.69780559969029       -0.03872613063973       -0.01566650442087
H           -9.44692539438897       -1.12756560774273       -5.22409474732330
H           -8.59401826099058        0.86482600821664       -4.08179210860063
H           -6.82785064043389        0.69556970588282       -2.37508408779902
H           -8.53273249433344       -3.36597322922736       -4.70701385662634
H           -7.12364495666759       -5.49429343656487       -3.68312475780970
H           -5.58701808513402       -6.95916629477615       -2.41625108002786
H           -4.08854024232743       -6.02761792380531       -0.71716016627714
H           -4.05176437062987       -3.60831008252058       -0.24221333583928
H           -3.09789042635767       -1.65779369144579       -1.45583907603262
H           -1.22037733314024       -2.22725402994060        0.02116857045273
H            1.20836863471444       -2.23378367646073        0.01310387690466
H            3.06209724033492        1.40883829659245       -1.50198946468163
H            3.75266312289717        3.37111905296589       -0.39822812599627
H            3.63427185866439        5.77260061856297       -0.92360399102695
H            5.17521479420771        6.79745356853329       -2.52982471787058
H            6.91476412664624        5.44185479484873       -3.64875670304989
H            8.55332976810927        3.42620193805105       -4.52653946689794
H            9.67819838838671        1.26291382493429       -4.93933671635669
H            8.91150121688383       -0.77667825859116       -3.81861351186599
H            7.02731716542371       -0.72877043095847       -2.23772598317782
H            6.77580715905440       -0.04214152739616        0.04156013011980
H            6.83365393118593        0.68357278235229        2.36961896686247
H            8.60195360040632        0.86066719090328        4.07336353180377
H            9.44369173362628       -1.12440906967302        5.23656098879496
H            8.51589897298948       -3.36274175071525        4.74411366711624
H            7.09414647414534       -5.49372409062807        3.74327041412713
H            5.54890693385898       -6.96307400816520        2.49216253395120
H            4.05488919698182       -6.04084441860516        0.78404486786095
H            4.03147856563564       -3.62634358702083        0.28403375788481
H            3.08924310133683       -1.65749899424858        1.47812214956333
H           -3.05444189839845        1.44336101954628        1.48779941634815
H           -7.03081574328270       -0.66302303594540        2.24922457409837
H           -8.91552155081820       -0.68112844430173        3.83025954719229
H           -9.67138726249776        1.37633711894366        4.92529735343882
H           -8.53547905540335        3.52837517087946        4.48521626393224
H           -6.88669212338017        5.52471594928491        3.58107251936886
H           -5.14034095113679        6.85674429110914        2.44449704771901
H           -3.60466107011705        5.80327774274666        0.85195575381692
H           -3.73520966272652        3.39562472973133        0.35796279276511
H           -6.77580873368978       -0.00496318023804       -0.03972210836779
