  113
       -182.62324115
 C         -8.8268910155       -2.7559928211       -3.6579100836
 C         -8.3686855503       -1.4657715936       -3.4021494830
 C         -7.3307198387       -1.2298117593       -2.5207053495
 C         -6.7600775493       -2.3233568994       -1.8839953683
 C         -7.2009827374       -3.6391466523       -2.1589009031
 C         -8.2447654547       -3.8508674382       -3.0485643923
 C         -6.3694613875       -4.5180425021       -1.3833831665
 C         -6.3224034330       -5.8959355007       -1.2238347569
 C         -5.3835769126       -6.4307136762       -0.3628335391
 C         -4.5119941049       -5.6085548872        0.3477685224
 C         -4.5402609869       -4.2342628962        0.2060377256
 C         -5.4626314010       -3.6925956200       -0.6787939181
 N         -5.7129906865       -2.3716604937       -0.9874570054
 C         -5.0075056239       -1.2712794899       -0.4824275511
 C         -3.6227808879       -1.2752136768       -0.5060495360
 C         -2.8936858968       -0.1860687138       -0.0039832891
 C         -1.4549375917       -0.1645641424       -0.0442608741
 C         -0.6883551427       -1.3612807902       -0.0695718854
 C          0.6756778737       -1.3668128566       -0.0738896660
 C          1.4529243585       -0.1767022692       -0.1040097647
 C          2.8917901667       -0.2100741723       -0.1073432459
 C          3.6316487963        0.8670358002       -0.6185045728
 C          5.0145960340        0.8734119565       -0.5637481623
 N          5.7227349536        1.9849216503       -1.0342668359
 C          5.4267790894        3.3023987010       -0.7386826931
 C          4.4098549336        3.8285188360        0.0473514241
 C          4.3591703573        5.2015742681        0.1972433347
 C          5.2964300912        6.0368519830       -0.4057409428
 C          6.3218795485        5.5170496724       -1.1732445572
 C          6.3924013197        4.1416913018       -1.3414495757
 C          7.3015256717        3.2795986394       -2.0467789053
 C          8.4190670785        3.5124329177       -2.8344734055
 C          9.0631443502        2.4310301953       -3.4062771849
 C          8.5929782000        1.1344007440       -3.2143945007
 C          7.4821145380        0.8778772627       -2.4327702277
 C          6.8482518302        1.9566928208       -1.8303525274
 C          5.7053228175       -0.2157236161       -0.0322974690
 C          4.9817717689       -1.3043583860        0.4511230332
 N          5.6618652550       -2.4073372532        0.9846851335
 C          6.6701417390       -2.3632397085        1.9246760250
 C          7.2171536872       -1.2716863906        2.5853043669
 C          8.2148987223       -1.5116611060        3.5108737450
 C          8.6560517472       -2.8038503547        3.7865591893
 C          8.0970596444       -3.8964399190        3.1520822233
 C          7.0941973230       -3.6806859816        2.2173726156
 C          6.2938837897       -4.5561458503        1.4059711027
 C          6.2512608415       -5.9335052210        1.2409244215
 C          5.3485397208       -6.4643700518        0.3398337118
 C          4.5078418473       -5.6389229712       -0.4033929948
 C          4.5328405725       -4.2650154528       -0.2574193095
 C          5.4198628243       -3.7271455846        0.6650063402
 C          3.5972849607       -1.3017556296        0.4229038740
 C          0.7256434488        1.0384001455       -0.1149242441
 N          1.2357769613        2.2662519199       -0.1335141309
 S          0.0119026358        3.3587548160       -0.1108986570
 N         -1.2204074919        2.2755637402       -0.0647604666
 C         -0.7182357288        1.0444236667       -0.0607484424
 C         -3.6084157896        0.8965644395        0.5300464450
 C         -4.9924135640        0.9069799809        0.5326153194
 N         -5.6773558370        2.0163772272        1.0406239150
 C         -6.7605145250        1.9822277899        1.8934106776
 C         -7.3691161616        0.8982178375        2.5123558552
 C         -8.4362967019        1.1493194855        3.3542208525
 C         -8.8869962522        2.4455730486        3.5901817071
 C         -8.2668589081        3.5316118057        3.0011101068
 C         -7.1943156459        3.3040607669        2.1516867738
 C         -6.3184943095        4.1715865397        1.4117260734
 C         -6.2514760293        5.5486543243        1.2571650261
 C         -5.2660730464        6.0744766409        0.4427174984
 C         -4.3650352255        5.2434903359       -0.2185652730
 C         -4.4129448037        3.8687398202       -0.0829140226
 C         -5.3897908339        3.3362880787        0.7483309824
 C         -5.7071526981       -0.1798175226        0.0289279128
 H         -9.6420789152       -2.8986593188       -4.3510933696
 H         -8.8314417623       -0.6307191382       -3.9066426672
 H         -6.9684427409       -0.2280215375       -2.3478555089
 H         -8.5887633413       -4.8518450425       -3.2601060632
 H         -7.0090954980       -6.5327073497       -1.7604764251
 H         -5.3274915669       -7.5003357070       -0.2276392787
 H         -3.8003290567       -6.0544206566        1.0268027206
 H         -3.8745196048       -3.6034356824        0.7751687539
 H         -3.1141969431       -2.1047139577       -0.9691048015
 H         -1.2099235433       -2.3053634397       -0.0433801627
 H          1.1891113687       -2.3155561506       -0.0905462262
 H          3.1078275801        1.6910195679       -1.0701297014
 H          3.6759311845        3.1963376944        0.5197448148
 H          3.5719243360        5.6345336376        0.7956079338
 H          5.2203999179        7.1047688577       -0.2663910807
 H          7.0546314962        6.1634157609       -1.6320183134
 H          8.7718317275        4.5189469932       -3.0002559204
 H          9.9357549691        2.5905188278       -4.0215950715
 H          9.1039725792        0.3108542220       -3.6905073508
 H          7.1123725938       -0.1289357007       -2.3131353347
 H          6.7820457863       -0.2155973035        0.0114855713
 H          6.8664740823       -0.2686104582        2.3965101851
 H          8.6582229166       -0.6785219564        4.0356246289
 H          9.4388255773       -2.9495701607        4.5155372221
 H          8.4269536305       -4.8988184726        3.3790076881
 H          6.9139502512       -6.5727052438        1.8041979788
 H          5.2968599351       -7.5334367576        0.1989508028
 H          3.8236625199       -6.0817830993       -1.1120107114
 H          3.8916704785       -3.6317957466       -0.8515411204
 H          3.0686721051       -2.1279833737        0.8690196902
 H         -3.0640378563        1.7197372823        0.9582996823
 H         -7.0127892462       -0.1088871162        2.3593567499
 H         -8.9268900764        0.3215134809        3.8441489457
 H         -9.7248073683        2.6006137180        4.2530390395
 H         -8.6031759265        4.5377029485        3.2002293246
 H         -6.9567457131        6.1913097685        1.7618912107
 H         -5.1936979509        7.1437355932        0.3118473795
 H         -3.6085806896        5.6812050948       -0.8522815994
 H         -3.7067791976        3.2403925510       -0.6006945986
 H         -6.7847544053       -0.1763745528        0.0285538074
