  57
       -102.58624051
 O          5.4847901627        2.3163757919        0.5881963341
 C          5.9172507570        1.2346429759        0.2452634114
 C          7.2924711132        1.0929636869       -0.2962763301
 C          7.8978153368        2.2225972064       -0.8524905982
 C          9.1647032381        2.1438791599       -1.4002542513
 C          9.8520432751        0.9390324149       -1.3994994376
 C          9.2697485092       -0.1857096963       -0.8345923534
 C          8.0025325020       -0.1029285387       -0.2940926647
 S          7.3017136531       -1.5333285985        0.5236258385
 O          7.7042676926       -2.7346092421       -0.1582125155
 O          7.6032328498       -1.4416926572        1.9301328060
 C          5.5448531126       -1.2734400402        0.3130539039
 C          4.6886240712       -2.3567107079        0.2968793931
 C          3.3215887574       -2.1576798668        0.2219424754
 C          2.7946509709       -0.8647210638        0.1831233021
 C          1.3445011117       -0.6426979247        0.1299683634
 C          0.5199852585       -1.4622366670       -0.6403479611
 C         -0.8415081311       -1.2516514467       -0.6912476943
 C         -1.4251623989       -0.2196580227        0.0443569736
 N         -2.8087670820       -0.0109441468        0.0036220930
 C         -3.6775709977       -1.1053897561       -0.0483658244
 C         -3.3821549623       -2.2766619991        0.6517186176
 C         -4.2347387768       -3.3607186822        0.5983194962
 C         -5.3960210289       -3.2767542440       -0.1520705321
 Br        -6.5794197734       -4.7722489671       -0.2234957311
 C         -5.7107652093       -2.1233783674       -0.8516380583
 C         -4.8513379481       -1.0445032312       -0.8018777255
 C         -3.3191711609        1.2907667809        0.0217150507
 C         -2.6539003784        2.3200969427       -0.6469890333
 C         -3.1521286947        3.6070281908       -0.6277956812
 C         -4.3270961051        3.8717078062        0.0563649960
 Br        -5.0225508310        5.6486335338        0.0781942473
 C         -5.0050509771        2.8653101863        0.7243093084
 C         -4.4990097709        1.5812621213        0.7091293075
 C         -0.6054040104        0.5999076113        0.8211335107
 C          0.7571389846        0.3944366697        0.8545719218
 C          3.6733299180        0.2148338987        0.2028733667
 C          5.0524494407        0.0259965371        0.2605034416
 H          7.3486628402        3.1526829320       -0.8453696405
 H          9.6186645250        3.0244912775       -1.8290439600
 H         10.8398061101        0.8754763544       -1.8296434711
 H          9.7786648647       -1.1367466036       -0.8068178018
 H          5.1127793567       -3.3477224451        0.3435421809
 H          2.6564956209       -3.0083061632        0.2224060859
 H          0.9543935936       -2.2520158230       -1.2350408506
 H         -1.4638034910       -1.8827473187       -1.3088970458
 H         -2.4813126301       -2.3319761171        1.2446043203
 H         -4.0034629871       -4.2622480723        1.1441622217
 H         -6.6151328115       -2.0720067588       -1.4378077701
 H         -5.0861822814       -0.1472648783       -1.3549642844
 H         -1.7440756227        2.1056716387       -1.1875851219
 H         -2.6358768502        4.3981420309       -1.1491130381
 H         -5.9160667895        3.0847125355        1.2591519506
 H         -5.0170949877        0.7958442088        1.2390104335
 H         -1.0469635138        1.3939147309        1.4052762505
 H          1.3721650960        1.0248992603        1.4787900882
 H          3.3015402403        1.2277617980        0.1540894203
