  57
  -102.297568983200       0.146689967942060      !
 O          5.4934564455        2.3043249927        0.6633203580
 C          5.9200255698        1.2300372365        0.2910434621
 C          7.2879704112        1.1004226139       -0.2721447771
 C          7.8869247112        2.2437917069       -0.8069832421
 C          9.1462760748        2.1790263975       -1.3736179809
 C          9.8328649893        0.9744413493       -1.4128548870
 C          9.2568453568       -0.1644824546       -0.8704441068
 C          7.9968614305       -0.0954912278       -0.3113222301
 S          7.3039453154       -1.5487209182        0.4719865421
 O          7.6919515958       -2.7286310964       -0.2540617488
 O          7.6263970095       -1.5028651377        1.8759713476
 C          5.5451395040       -1.2783613771        0.2955018108
 C          4.6869228799       -2.3596326168        0.2591287805
 C          3.3196009150       -2.1568705764        0.2065994820
 C          2.7935606271       -0.8626237298        0.2123170837
 C          1.3433124025       -0.6385154822        0.1747816877
 C          0.8018451531        0.4154771589       -0.5611314842
 C         -0.5601445359        0.6223377675       -0.6084935986
 C         -1.4268142734       -0.2167313142        0.0922158714
 N         -2.8108258144       -0.0110084773        0.0452788461
 C         -3.6761855450       -1.1069089545       -0.0184845490
 C         -4.9084335057       -1.0774279640        0.6375151256
 C         -5.7660855489       -2.1567113540        0.5697101041
 C         -5.3914809476       -3.2791224652       -0.1505519782
 Br        -6.5735839343       -4.7745408131       -0.2437813114
 C         -4.1713021837       -3.3323751117       -0.8040541675
 C         -3.3198655096       -2.2479709596       -0.7398045512
 C         -3.3209544979        1.2909254589        0.0427348682
 C         -2.7115881265        2.2880182843        0.8066550790
 C         -3.2094952521        3.5753593461        0.8062317969
 C         -4.3269558338        3.8722573572        0.0434098677
 Br        -5.0221567823        5.6494544996        0.0455056490
 C         -4.9477530556        2.8981857472       -0.7212271608
 C         -4.4427432427        1.6136206419       -0.7229423019
 C         -0.8907538626       -1.2658230958        0.8395864233
 C          0.4715010668       -1.4738595690        0.8733968849
 C          3.6743213934        0.2144868663        0.2529336311
 C          5.0539105449        0.0223882724        0.2861386346
 H          7.3389124426        3.1737006825       -0.7675982720
 H          9.5955532090        3.0705007487       -1.7844253110
 H         10.8151996645        0.9217052569       -1.8569866343
 H          9.7652745756       -1.1161784011       -0.8748449839
 H          5.1107336748       -3.3518361237        0.2632787642
 H          2.6551662691       -3.0059483155        0.1487038364
 H          1.4535290899        1.0602847688       -1.1312673442
 H         -0.9647604361        1.4319109976       -1.1981716398
 H         -5.1902164889       -0.2044768213        1.2072135711
 H         -6.7158506855       -2.1300658238        1.0808594288
 H         -3.8928093288       -4.2102121247       -1.3660637225
 H         -2.3725607520       -2.2788689415       -1.2573629876
 H         -1.8468831192        2.0475937250        1.4069808492
 H         -2.7378582550        4.3411983394        1.4022506985
 H         -5.8126304042        3.1436681559       -1.3177486815
 H         -4.9153896255        0.8532874129       -1.3268411642
 H         -1.5514469519       -1.9111468400        1.3999044323
 H          0.8677811626       -2.2749305895        1.4792315015
 H          3.3040278493        1.2287482911        0.2773064227
  57
  -102.297504080200       0.136953476171615      !
 O          5.4791759789        2.3001415864        0.6946035853
 C          5.9147177258        1.2279254484        0.3265995360
 C          7.2943748850        1.1007486462       -0.2071996069
 C          7.9039733693        2.2447943186       -0.7281957842
 C          9.1753365390        2.1807175895       -1.2674326233
 C          9.8629589957        0.9763044056       -1.2930610210
 C          9.2763365493       -0.1630817540       -0.7630560121
 C          8.0047038771       -0.0947502508       -0.2309750076
 S          7.2975646352       -1.5464121042        0.5426443408
 O          7.7060145020       -2.7291252298       -0.1675576369
 O          7.5875012204       -1.4921883285        1.9535197358
 C          5.5424251094       -1.2810883622        0.3246303086
 C          4.6866381153       -2.3635807639        0.2726308205
 C          3.3202127231       -2.1626833274        0.1917838415
 C          2.7932768448       -0.8691708045        0.1830226548
 C          1.3435549112       -0.6458716295        0.1238776653
 C          0.5256039834       -1.4446751906       -0.6747001534
 C         -0.8354800294       -1.2328662629       -0.7311665692
 C         -1.4254216736       -0.2208172199        0.0267928955
 N         -2.8086992122       -0.0111501014       -0.0197439927
 C         -3.6767637031       -1.1038619044       -0.1079433949
 C         -3.3868028546       -2.2933199611        0.5631599986
 C         -4.2386388929       -3.3756083373        0.4739593620
 C         -5.3937422932       -3.2717714078       -0.2834478715
 Br        -6.5761276089       -4.7648865522       -0.4043227868
 C         -5.7030302474       -2.1002179156       -0.9546690807
 C         -4.8443197745       -1.0230122412       -0.8691873506
 C         -3.3195715071        1.2895991131        0.0287534044
 C         -2.6490988824        2.3363698415       -0.6068631857
 C         -3.1478010358        3.6223158384       -0.5575586969
 C         -4.3284148882        3.8686660122        0.1237210327
 Br        -5.0244852484        5.6443552558        0.1870660975
 C         -5.0115708709        2.8448394061        0.7590835799
 C         -4.5050897907        1.5616691942        0.7139317164
 C         -0.6122811011        0.5778412864        0.8317900584
 C          0.7499945316        0.3716090812        0.8709464916
 C          3.6714845901        0.2095130566        0.2386819588
 C          5.0501332506        0.0192660874        0.3025990472
 H          7.3545402301        3.1743398039       -0.7008636468
 H          9.6325753675        3.0724361764       -1.6689170955
 H         10.8542368280        0.9242461058       -1.7166137013
 H          9.7852538029       -1.1145003389       -0.7563936475
 H          5.1106524146       -3.3554656192        0.2964151234
 H          2.6553583622       -3.0130481830        0.1641707566
 H          0.9650850307       -2.2183477446       -1.2865894718
 H         -1.4525195930       -1.8473440330       -1.3704657816
 H         -2.4908447446       -2.3643399736        1.1617460312
 H         -4.0116194674       -4.2913209591        0.9975246280
 H         -6.6025676327       -2.0333177060       -1.5466754891
 H         -5.0748470341       -0.1113967070       -1.4001370326
 H         -1.7348105414        2.1364288378       -1.1454760826
 H         -2.6274908522        4.4270301442       -1.0534024832
 H         -5.9270042753        3.0499086030        1.2920677820
 H         -5.0273050752        0.7624210610        1.2184723144
 H         -1.0588275431        1.3560204961        1.4331869607
 H          1.3597113199        0.9852788680        1.5167354246
 H          3.2998458764        1.2233648355        0.2137901108
  57
  -102.297448731000       0.129162466251008      !
 O          5.4299999870       -0.4867872351       -2.5260370377
 C          5.8897654787       -0.3023049544       -1.4173978458
 C          7.2866728144        0.1661077941       -1.2328268152
 C          7.8975511583        0.8404535590       -2.2930135659
 C          9.1856548732        1.3270818653       -2.1683709182
 C          9.8892733298        1.1461094866       -0.9866777924
 C          9.3008505537        0.4633404666        0.0672962633
 C          8.0126583868       -0.0153234023       -0.0604751500
 S          7.3007845713       -0.9821448664        1.2674994377
 O          7.5484416946       -2.3753295333        0.9945875962
 O          7.7435370291       -0.4715632713        2.5374657044
 C          5.5499468547       -0.6770185535        1.0677942016
 C          4.7113102987       -0.7654482921        2.1611865737
 C          3.3458619354       -0.6123790289        1.9999852290
 C          2.8025536712       -0.3912793438        0.7325920113
 C          1.3513323584       -0.2534460312        0.5515144344
 C          0.7103643302       -0.8430619532       -0.5374927482
 C         -0.6538532072       -0.7300217956       -0.7027262013
 C         -1.4198750639       -0.0134690283        0.2170986255
 N         -2.8065472322        0.1001847457        0.0543881428
 C         -3.5461395717       -0.9933293494       -0.4057722533
 C         -3.1985686228       -2.2915922756       -0.0277240085
 C         -3.9264589258       -3.3733770579       -0.4802241980
 C         -5.0145076966       -3.1619212549       -1.3109569735
 Br        -6.0287513714       -4.6548610605       -1.9308859778
 C         -5.3776783790       -1.8825153328       -1.6981020119
 C         -4.6424161939       -0.8040935785       -1.2493098348
 C         -3.4481970940        1.3012569794        0.3709263993
 C         -2.8279595822        2.5237044629        0.1055301873
 C         -3.4542931953        3.7122154531        0.4216399384
 C         -4.7122257053        3.6852945339        1.0009835623
 Br        -5.5826029875        5.3272131957        1.4354766055
 C         -5.3474569572        2.4842044325        1.2702791134
 C         -4.7144304224        1.2977932288        0.9589869410
 C         -0.7821556042        0.5865033341        1.3030395009
 C          0.5813707044        0.4632707064        1.4666296970
 C          3.6627494547       -0.3099672095       -0.3584949803
 C          5.0414747903       -0.4416750066       -0.2049210424
 H          7.3359463838        0.9726918051       -3.2062563906
 H          9.6437804076        1.8482501576       -2.9953420335
 H         10.8937637091        1.5282973536       -0.8868635913
 H          9.8210288931        0.2953881573        0.9976372062
 H          5.1479127681       -0.9532850718        3.1299145593
 H          2.6931379333       -0.6926614840        2.8565419942
 H          1.2857649781       -1.4109923149       -1.2529032572
 H         -1.1366029623       -1.1942346682       -1.5501635765
 H         -2.3562950590       -2.4497056480        0.6292508924
 H         -3.6561263743       -4.3741885392       -0.1812820004
 H         -6.2227103065       -1.7308925804       -2.3515385837
 H         -4.9143018623        0.1944352117       -1.5576385128
 H         -1.8516797809        2.5382087034       -0.3557808079
 H         -2.9721794083        4.6542196543        0.2110694399
 H         -6.3243591774        2.4756874512        1.7282468309
 H         -5.1998980457        0.3586141509        1.1788441509
 H         -1.3652199356        1.1437752444        2.0216948023
 H          1.0581404706        0.9436012396        2.3081178583
 H          3.2774607892       -0.1208599993       -1.3496876237
  57
  -102.297441500700       0.128178006561609      !
 O          5.5327259915        0.4673050166        2.3479326320
 C          5.9393740058        0.1179581480        1.2586487351
 C          7.2766421250       -0.5080150902        1.0999633768
 C          7.8446143089       -1.1340400891        2.2122062551
 C          9.0697117585       -1.7672172949        2.1132591369
 C          9.7523993316       -1.7825348617        0.9058765027
 C          9.2085734460       -1.1481600133       -0.2010113964
 C          7.9823636837       -0.5231676076       -0.0984144434
 S          7.3315826616        0.3756327540       -1.5037055709
 O          7.7147916256        1.7587578277       -1.3729579509
 O          7.6931458503       -0.2943479447       -2.7244993820
 C          5.5661197822        0.2540528918       -1.2456683820
 C          4.7083233961        0.2928917250       -2.3270270851
 C          3.3397792944        0.2687942521       -2.1260232930
 C          2.8128258188        0.2290682630       -0.8328559387
 C          1.3614618847        0.2104938632       -0.6108168199
 C          0.5026038433        0.9590647651       -1.4151060388
 C         -0.8614469320        0.9323064730       -1.2161208431
 C         -1.4129591502        0.1503125077       -0.2005987330
 N         -2.7973882885        0.1093164328       -0.0024718976
 C         -3.4131809572       -1.0840366994        0.3892977575
 C         -2.9638040713       -2.3099087523       -0.1051067004
 C         -3.5670566744       -3.4881596099        0.2853109297
 C         -4.6318784137       -3.4466709259        1.1700730285
 Br        -5.4679513475       -5.0748105338        1.7095664591
 C         -5.0973499934       -2.2415347535        1.6694496127
 C         -4.4868144567       -1.0661214340        1.2814479132
 C         -3.5705161526        1.2572401666       -0.2065936246
 C         -4.8399194827        1.1623269087       -0.7794848170
 C         -5.6064979475        2.2925275749       -0.9791822052
 C         -5.1025279495        3.5294966480       -0.6124570474
 Br        -6.1572618303        5.0948967164       -0.8929987059
 C         -3.8439395629        3.6471776701       -0.0460921503
 C         -3.0837724626        2.5134845924        0.1588026461
 C         -0.5575040218       -0.5940947022        0.6127815286
 C          0.8052265410       -0.5623297599        0.4084068603
 C          3.6935498018        0.1989679791        0.2448653326
 C          5.0734631426        0.2001337550        0.0534467183
 H          7.2997696315       -1.1131283178        3.1446855112
 H          9.4949830648       -2.2494616049        2.9804615422
 H         10.7069110717       -2.2801245652        0.8264093105
 H          9.7152418963       -1.1315794846       -1.1535239534
 H          5.1325987899        0.3299592786       -3.3183717016
 H          2.6748779679        0.2675911015       -2.9767189640
 H          0.9084987051        1.5846448911       -2.1959552180
 H         -1.5112032091        1.5137997700       -1.8537496549
 H         -2.1410387774       -2.3352654403       -0.8038797675
 H         -3.2163667998       -4.4328279376       -0.1003668774
 H         -5.9250525031       -2.2221083352        2.3611865354
 H         -4.8388537347       -0.1245802184        1.6758347896
 H         -5.2238596287        0.1964867408       -1.0723385476
 H         -6.5859195158        2.2140255346       -1.4246853018
 H         -3.4646314729        4.6156943731        0.2405822162
 H         -2.1057734327        2.5976193998        0.6087086202
 H         -0.9697313140       -1.1957633893        1.4095323265
 H          1.4464813401       -1.1601752982        1.0384259117
 H          3.3232968493        0.1890581459        1.2594005533
  57
  -102.297428066600       0.126368732136065      !
 O          5.4045992785        2.1649401766       -1.0036364179
 C          5.8858162619        1.1636675540       -0.5112762249
 C          7.3063719495        1.1331178872       -0.0815850363
 C          7.9439838700        2.3566217729        0.1433372166
 C          9.2588821746        2.3997601398        0.5665999289
 C          9.9645140945        1.2232838428        0.7717695518
 C          9.3490777265        0.0027663502        0.5387250965
 C          8.0343280731       -0.0346995668        0.1195494902
 S          7.2985805168       -1.6184082314       -0.2762151599
 O          7.5359340782       -1.8858419090       -1.6727687788
 O          7.7393010538       -2.6125051591        0.6661765354
 C          5.5494646511       -1.3133449593       -0.0603043692
 C          4.7069490138       -2.3785348218        0.1916381023
 C          3.3394281627       -2.1807824165        0.2579070108
 C          2.7992423157       -0.9078840233        0.0625273419
 C          1.3476918781       -0.6896197616        0.0904690698
 C          0.4812642600       -1.5937976612       -0.5224392011
 C         -0.8798944574       -1.3760728291       -0.5336392432
 C         -1.4214695455       -0.2523344127        0.0920432738
 N         -2.8016013864       -0.0262147771        0.0808920888
 C         -3.6913747978       -1.1042505589        0.1367302251
 C         -3.4134537689       -2.2128418260        0.9383624722
 C         -4.2884908121       -3.2790221898        0.9898168155
 C         -5.4542585520       -3.2392901571        0.2426111487
 Br        -6.6673928304       -4.7106279992        0.3142601309
 C         -5.7521570812       -2.1475981548       -0.5561885431
 C         -4.8709101045       -1.0866763969       -0.6098683618
 C         -3.2991375937        1.2786796805       -0.0037226365
 C         -2.6571666845        2.2344363383       -0.7933326531
 C         -3.1462336498        3.5226700228       -0.8727023270
 C         -4.2887299095        3.8614349274       -0.1664671001
 Br        -4.9698285939        5.6406321808       -0.2772738007
 C         -4.9444403892        2.9279630355        0.6189777086
 C         -4.4475842024        1.6427755590        0.7013887793
 C         -0.5594919509        0.6446875220        0.7248714209
 C          0.8026295742        0.4336127749        0.7113569045
 C          3.6636476129        0.1547680031       -0.1804399776
 C          5.0435300033       -0.0314456809       -0.2460326195
 H          7.3805770405        3.2630920921       -0.0233571295
 H          9.7367444340        3.3529633600        0.7356125414
 H         10.9908916373        1.2540124721        1.1041133626
 H          9.8696834374       -0.9319883896        0.6782816157
 H          5.1436164599       -3.3545248382        0.3362932809
 H          2.6861623364       -3.0133441858        0.4725705309
 H          0.8831527311       -2.4571145312       -1.0316550638
 H         -1.5335026762       -2.0716496710       -1.0392498537
 H         -2.5080636166       -2.2325974807        1.5266271035
 H         -4.0705681177       -4.1321543104        1.6133789167
 H         -6.6602768306       -2.1302432459       -1.1385581497
 H         -5.0926199190       -0.2378677920       -1.2396080435
 H         -1.7736470950        1.9608127865       -1.3504756537
 H         -2.6475860639        4.2561972122       -1.4870200509
 H         -5.8302775792        3.2049259028        1.1691480486
 H         -4.9483373555        0.9140313877        1.3213477089
 H         -0.9665595566        1.5085424030        1.2296496107
 H          1.4526053624        1.1327331846        1.2158960470
 H          3.2777933576        1.1494137667       -0.3496841316
  57
  -102.297364490000       0.118146768048497      !
 O          5.3859326973       -0.5395372467       -2.5101291382
 C          5.8366347921       -0.3346613634       -1.4018858615
 C          7.1909563830        0.2438281625       -1.2128156443
 C          7.7296538297        1.0104372040       -2.2486565729
 C          8.9696250367        1.6062918845       -2.1096859926
 C          9.6955772394        1.4431562756       -0.9390607457
 C          9.1804517791        0.6679746230        0.0891795156
 C          7.9394197051        0.0810683748       -0.0519402412
 S          7.3178868857       -0.9947620235        1.2379089007
 O          7.6519620926       -2.3538193857        0.8949637566
 O          7.7471946283       -0.5156974675        2.5246698823
 C          5.5480862286       -0.7909423518        1.0750410307
 C          4.7303809222       -0.9447864253        2.1769595443
 C          3.3574081079       -0.8403044893        2.0391775058
 C          2.7878372015       -0.6070179721        0.7860889964
 C          1.3329054877       -0.4804604449        0.6262510553
 C          0.6794697742       -1.0586561158       -0.4611062967
 C         -0.6815507177       -0.9122345124       -0.6289051362
 C         -1.4281322219       -0.1682984613        0.2846686434
 N         -2.8056139347        0.0158262257        0.1021977858
 C         -3.5966169133       -1.0386778274       -0.3612884686
 C         -3.3274090795       -2.3496938276        0.0365918077
 C         -4.1064482342       -3.3950065085       -0.4166373141
 C         -5.1664212036       -3.1338030777       -1.2691243115
 Br        -6.2512220782       -4.5761977477       -1.8898872169
 C         -5.4505328651       -1.8411820824       -1.6779842859
 C         -4.6649435694       -0.7995621094       -1.2277840202
 C         -3.3741074036        1.2640167441        0.3721047305
 C         -2.6653367488        2.4352374614        0.0966245843
 C         -3.2169512984        3.6707434646        0.3679728394
 C         -4.4886156870        3.7431222076        0.9121928130
 Br        -5.2557739915        5.4506332725        1.2838027699
 C         -5.2111261624        2.5945991158        1.1904429656
 C         -4.6528067543        1.3606260491        0.9241397645
 C         -0.7808727746        0.4023585762        1.3805642885
 C          0.5782942514        0.2431320734        1.5485227478
 C          3.6264641711       -0.4733580508       -0.3166368339
 C          5.0109531204       -0.5495189771       -0.1846201950
 H          7.1507974224        1.1281928888       -3.1530128452
 H          9.3717227081        2.2004497248       -2.9163869751
 H         10.6614372033        1.9116802992       -0.8279169918
 H          9.7212461599        0.5115291476        1.0097571489
 H          5.1886028622       -1.1379538663        3.1344689163
 H          2.7207601360       -0.9639188537        2.9025990442
 H          1.2435651690       -1.6377376662       -1.1767204300
 H         -1.1746980767       -1.3632930563       -1.4775828250
 H         -2.5058126285       -2.5458039384        0.7092494929
 H         -3.8971879413       -4.4057909859       -0.1023036914
 H         -6.2734743601       -1.6511491945       -2.3493722113
 H         -4.8748625644        0.2084278160       -1.5534479731
 H         -1.6788696908        2.3729118048       -0.3381556484
 H         -2.6657822327        4.5722735757        0.1499691580
 H         -6.1984792893        2.6636322303        1.6199832511
 H         -5.2070371826        0.4621256636        1.1515718547
 H         -1.3526908455        0.9724015554        2.0982616263
 H          1.0654787209        0.7054854901        2.3941337527
 H          3.2176049492       -0.2779202366       -1.2971368707
  57
  -102.297299319600       0.110273612916509      !
 O          5.5720212513        0.3775983924        2.3955799436
 C          5.9555569548        0.0674163668        1.2864244123
 C          7.2629314768       -0.6069732012        1.0812149958
 C          7.8031276000       -1.3334658628        2.1447821359
 C          8.9980276100       -2.0132586725        1.9957991244
 C          9.6772738671       -1.9753392069        0.7870054180
 C          9.1612311781       -1.2416808671       -0.2707625320
 C          7.9647973552       -0.5709711644       -0.1189602023
 S          7.3438502643        0.4459483706       -1.4557808341
 O          7.7654062091        1.8048260919       -1.2271711546
 O          7.6875223608       -0.1455171063       -2.7214463486
 C          5.5758810774        0.3543684018       -1.2025900019
 C          4.7158250128        0.4703671071       -2.2762687500
 C          3.3477797200        0.4583075020       -2.0709346197
 C          2.8232947396        0.3569679200       -0.7799584459
 C          1.3722722536        0.3332430605       -0.5573872296
 C          0.5098954215        1.1055793571       -1.3352945527
 C         -0.8552182672        1.0554221038       -1.1481615418
 C         -1.4052685460        0.2273263633       -0.1688831536
 N         -2.7901651751        0.1500421776        0.0101318063
 C         -3.3804756036       -1.0682264168        0.3653453016
 C         -2.9025999830       -2.2687748343       -0.1629706636
 C         -3.4785763838       -3.4712058417        0.1937388907
 C         -4.5454084619       -3.4790726022        1.0773282765
 Br        -5.3444776722       -5.1397541608        1.5717666180
 C         -5.0404053668       -2.2993135559        1.6078308304
 C         -4.4562427499       -1.0996679476        1.2543333551
 C         -3.5930658458        1.2796738749       -0.1800388025
 C         -4.8527625787        1.1586000839       -0.7695201645
 C         -5.6506107152        2.2691727440       -0.9562068596
 C         -5.1879570409        3.5129928381       -0.5592547328
 Br        -6.2859095314        5.0514811486       -0.8224182441
 C         -3.9401572539        3.6565218968        0.0249101453
 C         -3.1485344241        2.5420993538        0.2165287576
 C         -0.5458216253       -0.5328108370        0.6256837885
 C          0.8174113578       -0.4802204608        0.4308131740
 C          3.7072033509        0.2564991901        0.2912832214
 C          5.0857364863        0.2399878004        0.0935511911
 H          7.2622686460       -1.3519342063        3.0796975071
 H          9.4014126578       -2.5750494209        2.8246334700
 H         10.6080585748       -2.5086801155        0.6687110208
 H          9.6665147710       -1.1821217101       -1.2222648266
 H          5.1372592678        0.5539457471       -3.2659086645
 H          2.6811172360        0.5123452315       -2.9182543655
 H          0.9129584838        1.7646303885       -2.0897364235
 H         -1.5066806691        1.6519932281       -1.7699067788
 H         -2.0775211827       -2.2554315820       -0.8595356471
 H         -3.1065537810       -4.3962304414       -0.2185912979
 H         -5.8688695217       -2.3184663667        2.2986750619
 H         -4.8306019446       -0.1776288660        1.6735107909
 H         -5.2030891294        0.1881168201       -1.0883914058
 H         -6.6214339135        2.1706241417       -1.4164551417
 H         -3.5939372276        4.6298001206        0.3363084406
 H         -2.1801850506        2.6458375521        0.6828889825
 H         -0.9557836863       -1.1666969201        1.3982152487
 H          1.4601224293       -1.0934023959        1.0441580285
 H          3.3408599548        0.1993937370        1.3056148498
  57
  -102.297246027200       0.104226969972637      !
 O          5.3246049954        1.1471119112       -2.1073012833
 C          5.8269242403        0.4980605547       -1.2114028022
 C          7.2459450271        0.0691833698       -1.2857329096
 C          7.8556215713        0.0552000145       -2.5435929497
 C          9.1692129610       -0.3499256804       -2.6865572363
 C          9.9012338261       -0.7467839599       -1.5770605534
 C          9.3132286101       -0.7253211033       -0.3215809971
 C          7.9993547819       -0.3239724396       -0.1848542233
 S          7.3033634360       -0.2023372008        1.4599855081
 O          7.7582240466       -1.3042327031        2.2653876852
 O          7.5590120151        1.1255474285        1.9586131295
 C          5.5454602901       -0.3520363855        1.1662686358
 C          4.7255402444       -0.7668357344        2.1978016536
 C          3.3525216844       -0.7829664386        2.0292680375
 C          2.7853244063       -0.3745198544        0.8205891095
 C          1.3273223913       -0.3326509128        0.6428412287
 C          0.7345453727       -0.7692080006       -0.5407206172
 C         -0.6309989205       -0.6918665661       -0.7191176149
 C         -1.4422392567       -0.1578599085        0.2815424474
 N         -2.8266168220       -0.0354872422        0.0940356920
 C         -3.5410000273       -1.0559706664       -0.5363250593
 C         -3.1789928513       -2.3911279570       -0.3453890764
 C         -3.8811298592       -3.4050098067       -0.9648858690
 C         -4.9580934932       -3.0896524199       -1.7767812754
 Br        -5.9375455262       -4.4902109210       -2.6265312295
 C         -5.3345802959       -1.7724396054       -1.9810197403
 C         -4.6246709373       -0.7610602250       -1.3662839322
 C         -3.4722452019        1.1272950082        0.5255595635
 C         -2.8299393585        2.3635495825        0.4303927286
 C         -3.4559493813        3.5157145267        0.8605173788
 C         -4.7360358131        3.4390152123        1.3840406553
 Br        -5.6065092429        5.0311093854        1.9753089463
 C         -5.3925298755        2.2235584377        1.4867155293
 C         -4.7597857161        1.0724826616        1.0621278367
 C         -0.8551563232        0.2699123012        1.4721917188
 C          0.5089236603        0.1771663265        1.6495926406
 C          3.6263410725        0.0264277636       -0.2119163441
 C          5.0115267382        0.0459755143       -0.0543613000
 H          7.2712336272        0.3687013446       -3.3963406821
 H          9.6252430338       -0.3548462717       -3.6651354835
 H         10.9268200211       -1.0647647938       -1.6862780109
 H          9.8540277866       -1.0200328263        0.5644084358
 H          5.1837297490       -1.0747430691        3.1248631609
 H          2.7157507057       -1.1201939182        2.8336315258
 H          1.3501041095       -1.1827129946       -1.3255922300
 H         -1.0778664998       -1.0314216665       -1.6421423923
 H         -2.3458127319       -2.6319936213        0.2979499392
 H         -3.6004514601       -4.4351003683       -0.8091476465
 H         -6.1697585739       -1.5381935649       -2.6227045602
 H         -4.9068720436        0.2677531031       -1.5333662427
 H         -1.8363808845        2.4186018644        0.0111029671
 H         -2.9560577884        4.4685483582        0.7804452138
 H         -6.3865594067        2.1758686553        1.9034909004
 H         -5.2626074085        0.1210649738        1.1519786561
 H         -1.4776488326        0.6780822632        2.2550338735
 H          0.9497399413        0.5280131714        2.5707996409
 H          3.2180375110        0.3612423739       -1.1543623791
