  78
  -128.851165896700       0.223810686198649      !
 N         -1.9388900269        0.8411622583        2.3793055532
 C         -1.2173448895        0.2577718539        1.7061273580
 C         -0.2840474390       -0.4630800484        0.9253761846
 C          1.0375042373       -0.0315746376        0.8935771883
 C          1.9903632298       -0.7470745811        0.1794211129
 C          3.3764692783       -0.2792502141        0.1376890919
 N          3.6402444434        0.9142782838        0.6566643920
 C          4.9104592848        1.3076772276        0.5924990998
 C          5.2496206421        2.6200445493        1.1395149003
 C          4.2481007916        3.4482449620        1.6436181933
 C          4.5715649439        4.6873574076        2.1608785176
 C          5.8919256380        5.1096002348        2.1803602836
 C          6.8915670044        4.2900128629        1.6789801003
 C          6.5753120005        3.0499697614        1.1595216213
 N          5.8853707296        0.5763391283        0.0605067258
 C          5.5315990269       -0.6071288574       -0.4308927729
 C          6.5734597407       -1.4479875058       -1.0187385685
 C          6.2634756104       -2.7229305227       -1.4887301031
 C          7.2508398966       -3.5154360651       -2.0406309948
 C          8.5519268857       -3.0448066336       -2.1286132879
 C          8.8654895922       -1.7772624293       -1.6627161419
 C          7.8829689500       -0.9796469581       -1.1094240994
 N          4.2842287858       -1.0734423734       -0.4191184370
 C          1.6147879465       -1.9075233064       -0.4997958512
 C          0.3051798989       -2.3377233019       -0.4784928194
 C         -0.6646345430       -1.6232435036        0.2227697465
 N         -1.9857814949       -2.0588307330        0.2471077508
 C         -2.4013545962       -3.3029532081        0.7020212768
 C         -1.6473577254       -4.4097835113        1.0550919026
 C         -2.3212922685       -5.5306412923        1.5053069795
 C         -3.7085043842       -5.5461434313        1.6137878821
 C         -4.4593471944       -4.4326416672        1.2913020848
 C         -3.8053319312       -3.2960817588        0.8350400657
 C         -4.2667444286       -1.9884498654        0.4469546764
 C         -5.5703076436       -1.4808062195        0.4270422352
 C         -5.7244490266       -0.1686013456        0.0078390673
 C         -6.7396978868        0.8448913077       -0.2184288751
 C         -8.1110108638        0.8630399809       -0.0267162856
 C         -8.8176045555        2.0094978492       -0.3481883750
 C         -8.1731469700        3.1305489987       -0.8551978027
 C         -6.8022292938        3.1437399648       -1.0579091205
 C         -6.0878351300        2.0046863841       -0.7410210668
 N         -4.7310797355        1.7334980212       -0.8397947538
 C         -3.4954930065        2.1973025884       -1.2490537417
 C         -3.1411860252        3.4123164771       -1.8051064837
 C         -1.8208097703        3.6031325423       -2.1729407052
 C         -0.8806347524        2.5933336488       -2.0127453316
 C         -1.2234335824        1.3734918067       -1.4572500289
 C         -2.5286642998        1.1614762384       -1.0361165768
 C         -3.2258328773        0.0344145834       -0.4415972229
 C         -3.0971637132       -1.2588033805        0.0741190091
 C         -4.5468010178        0.4648817490       -0.3883890273
 H          1.3310716259        0.8591514249        1.4266923601
 H          3.2259234125        3.1047174496        1.6200011597
 H          3.7941701023        5.3273394797        2.5514947114
 H          6.1422388869        6.0788719987        2.5862513507
 H          7.9193709050        4.6218336626        1.6948731956
 H          7.3397336431        2.3975180498        0.7677869781
 H          5.2463401962       -3.0732450894       -1.4107089981
 H          7.0095289366       -4.5041767761       -2.4026536176
 H          9.3225362368       -3.6670483395       -2.5597275633
 H          9.8800437387       -1.4131851519       -1.7319248708
 H          8.1077496384        0.0095637840       -0.7429656843
 H          2.3657218500       -2.4486229979       -1.0532323289
 H          0.0088061540       -3.2182043640       -1.0284393607
 H         -0.5695161427       -4.4021943839        0.9944844143
 H         -1.7577248984       -6.4093994863        1.7812261661
 H         -4.2002832954       -6.4405041363        1.9660616710
 H         -5.5335220409       -4.4408257399        1.3949800633
 H         -6.3984329574       -2.1015540746        0.7299535897
 H         -8.6167395151       -0.0052123279        0.3683091357
 H         -9.8872971744        2.0352365776       -0.2025449696
 H         -8.7503647159        4.0107812595       -1.0964156360
 H         -6.3102845142        4.0199443663       -1.4509894937
 H         -3.8757748249        4.1882086428       -1.9547686236
 H         -1.5209879199        4.5458271147       -2.6056976180
 H          0.1373640463        2.7605278480       -2.3322006447
 H         -0.4793131007        0.5965889729       -1.3762096758
  78
  -128.850868940600       0.163459153013458      !
 N         -1.9177722186        0.7604044132        2.4052228449
 C         -1.2016882762        0.2097647117        1.6993457830
 C         -0.2746339081       -0.4739964360        0.8788538429
 C          1.0472100429       -0.0406650008        0.8575177230
 C          1.9965807715       -0.7287897266        0.1132690485
 C          3.3864313189       -0.2702676281        0.0925305991
 N          3.6398538875        0.9551504369        0.5365820628
 C          4.9160421290        1.3330981040        0.4956709350
 C          5.2465809400        2.6855810003        0.9405246124
 C          4.2315708135        3.5857192177        1.2601609951
 C          4.5486303105        4.8647570897        1.6740616576
 C          5.8752399333        5.2543447650        1.7753999062
 C          6.8882171649        4.3621233658        1.4594814459
 C          6.5786101786        3.0827409015        1.0416764011
 N          5.9058519841        0.5524804714        0.0728164345
 C          5.5606450670       -0.6602011926       -0.3481007413
 C          6.6191167766       -1.5559191712       -0.8114116861
 C          7.9408580195       -1.1155370842       -0.8519749194
 C          8.9398781622       -1.9663206438       -1.2827534091
 C          8.6305808065       -3.2594490193       -1.6756052924
 C          7.3174628814       -3.7021911881       -1.6371941848
 C          6.3134927442       -2.8567143121       -1.2073077859
 N          4.3067963049       -1.1086611858       -0.3703930223
 C          1.6173258678       -1.8583292226       -0.6139604736
 C          0.3062979808       -2.2838042781       -0.6107681369
 C         -0.6596218143       -1.6015901181        0.1275530292
 N         -1.9782922420       -2.0442762771        0.1414778841
 C         -2.3781625978       -3.3178174621        0.5243055773
 C         -1.6108635326       -4.4343211655        0.8127492622
 C         -2.2708409107       -5.5873677294        1.1975531478
 C         -3.6575622626       -5.6257970195        1.3061523767
 C         -4.4216762493       -4.5041828714        1.0502041199
 C         -3.7816125765       -3.3355544699        0.6597810865
 C         -4.2590597532       -2.0132432797        0.3493630611
 C         -5.5691222350       -1.5227366255        0.3628056495
 C         -5.7414808695       -0.1902081987        0.0227568560
 C         -6.7701900195        0.8221573633       -0.1373072236
 C         -8.1412281978        0.8100502391        0.0569899389
 C         -8.8632707382        1.9652580943       -0.1899003880
 C         -8.2343250944        3.1246250311       -0.6251976822
 C         -6.8642307144        3.1683884844       -0.8291662357
 C         -6.1345266728        2.0207237869       -0.5870529797
 N         -4.7749447656        1.7731851103       -0.7068761928
 C         -3.5466055522        2.2780782742       -1.0882064909
 C         -3.2094424191        3.5314357092       -1.5637661751
 C         -1.8928024025        3.7629111475       -1.9215069716
 C         -0.9400159101        2.7563409664       -1.8316851696
 C         -1.2658845627        1.4982434721       -1.3572122298
 C         -2.5663184273        1.2428698094       -0.9454483823
 C         -3.2467218393        0.0716944526       -0.4201634354
 C         -3.0994114346       -1.2483816638        0.0172338246
 C         -4.5731091647        0.4810236556       -0.3372027919
 H          1.3433903648        0.8267679609        1.4267763228
 H          3.2046752855        3.2667639754        1.1728767158
 H          3.7611177911        5.5623905609        1.9181840828
 H          6.1199499057        6.2549260305        2.1006313596
 H          7.9209863860        4.6682089946        1.5401816238
 H          7.3530096483        2.3740575779        0.7927828027
 H          8.1615757586       -0.1058490888       -0.5440988305
 H          9.9633724508       -1.6237684358       -1.3144983471
 H          9.4138135961       -3.9231401621       -2.0118070143
 H          7.0787007905       -4.7105298227       -1.9447670604
 H          5.2871042615       -3.1852263662       -1.1657600091
 H          2.3658640128       -2.3776549851       -1.1911541584
 H          0.0058298471       -3.1361280560       -1.2012283574
 H         -0.5332469408       -4.4108551128        0.7533029634
 H         -1.6963799420       -6.4737649078        1.4215698732
 H         -4.1382700514       -6.5449775893        1.6059148111
 H         -5.4954543186       -4.5309080984        1.1547918750
 H         -6.3880197474       -2.1713925470        0.6302257834
 H         -8.6347519568       -0.0880998082        0.3967441220
 H         -9.9328682943        1.9678279774       -0.0413005741
 H         -8.8233378249        4.0109657165       -0.8084244195
 H         -6.3845832129        4.0741149374       -1.1664988789
 H         -3.9541076605        4.3062552024       -1.6594293526
 H         -1.6060914282        4.7360849438       -2.2909790752
 H          0.0745962446        2.9564998697       -2.1428348950
 H         -0.5122395884        0.7268635281       -1.3318467671
  78
  -128.850866648300       0.163063130650847      !
 N         -1.9436554819        0.6612332944        2.4512307715
 C         -1.2254401817        0.1145473296        1.7442854796
 C         -0.2915566352       -0.5645043626        0.9276662339
 C          1.0278772226       -0.1252105401        0.9163852313
 C          1.9840533294       -0.8041526875        0.1723542415
 C          3.3627737095       -0.3149369718        0.1352075572
 N          3.5857019758        0.9228381274        0.5606382739
 C          4.8453484076        1.3460860941        0.4788784029
 C          5.1341727885        2.7172306339        0.8945655378
 C          4.0942461203        3.5685411365        1.2643617223
 C          4.3680904347        4.8661831978        1.6499490372
 C          5.6763931384        5.3240618070        1.6706191078
 C          6.7140277241        4.4810145393        1.3037382777
 C          6.4476856768        3.1823717153        0.9162187556
 N          5.8503048238        0.5959626953        0.0366662970
 C          5.5382194846       -0.6373991705       -0.3488831759
 C          6.6156286038       -1.5056348182       -0.8209084846
 C          6.3556390911       -2.8399351408       -1.1279757404
 C          7.3769649718       -3.6597735113       -1.5664297247
 C          8.6616571612       -3.1572942244       -1.7036748353
 C          8.9249350497       -1.8303144194       -1.4010853645
 C          7.9087265349       -1.0052723552       -0.9602515302
 N          4.3009029493       -1.1302443596       -0.3325346564
 C          1.6170178837       -1.9390590437       -0.5525554205
 C          0.3075240344       -2.3704364016       -0.5597071364
 C         -0.6678985059       -1.6877817291        0.1652005575
 N         -1.9923584952       -2.1125221898        0.1486145032
 C         -2.4301618207       -3.3773177508        0.5176607272
 C         -1.6964503345       -4.5171043702        0.8018880918
 C         -2.3915312750       -5.6558472381        1.1672221660
 C         -3.7798263388       -5.6575363946        1.2609656634
 C         -4.5106261751       -4.5127178939        1.0098593286
 C         -3.8352807706       -3.3578427921        0.6387621570
 C         -4.2741712483       -2.0203044730        0.3350929372
 C         -5.5685222322       -1.4892810092        0.3474548351
 C         -5.6981891454       -0.1489915548        0.0181049412
 C         -6.6931024645        0.8985592126       -0.1306936387
 C         -8.0631377934        0.9310648551        0.0681066739
 C         -8.7462314947        2.1128925715       -0.1635809269
 C         -8.0798224207        3.2549471751       -0.5887132520
 C         -6.7097265882        3.2542687072       -0.7972308816
 C         -6.0187454608        2.0800100701       -0.5695977587
 N         -4.6682706420        1.7890004316       -0.6943396473
 C         -3.4231794132        2.2579662740       -1.0673473042
 C         -3.0440668538        3.5034362275       -1.5321307943
 C         -1.7195961057        3.6948287817       -1.8848474544
 C         -0.8002659367        2.6569477947       -1.8023888178
 C         -1.1681320063        1.4062938528       -1.3391829533
 C         -2.4768238250        1.1908746962       -0.9305547345
 C         -3.1958779727        0.0381439104       -0.4165924036
 C         -3.0910984228       -1.2871553983        0.0164432814
 C         -4.5090217132        0.4877294140       -0.3361192518
 H          1.3159224322        0.7434144460        1.4877946837
 H          3.0818138314        3.1969998213        1.2389656668
 H          3.5610300883        5.5246949230        1.9353135689
 H          5.8877125950        6.3393909215        1.9728530676
 H          7.7323855087        4.8405106861        1.3210370804
 H          7.2419889708        2.5116428776        0.6287542200
 H          5.3507078357       -3.2142017352       -1.0112289390
 H          7.1747965121       -4.6943996148       -1.8015551519
 H          9.4586911436       -3.8009492081       -2.0462651744
 H          9.9266762873       -1.4413907765       -1.5093079974
 H          8.0941311996        0.0299080911       -0.7210226143
 H          2.3722456399       -2.4544516943       -1.1247375868
 H          0.0156571624       -3.2234786159       -1.1533835382
 H         -0.6180894353       -4.5223475081        0.7529914241
 H         -1.8439132743       -6.5603050030        1.3863298097
 H         -4.2885199863       -6.5666428764        1.5447757114
 H         -5.5858518498       -4.5115382273        1.1023300731
 H         -6.4082324204       -2.1137641098        0.6078313198
 H         -8.5859634583        0.0467691605        0.4002773337
 H         -9.8146071402        2.1501998990       -0.0109969015
 H         -8.6389395977        4.1626657225       -0.7606990980
 H         -6.2003883209        4.1467225245       -1.1264156695
 H         -3.7629313137        4.3027003071       -1.6241981271
 H         -1.4005890498        4.6610419181       -2.2461830196
 H          0.2208146977        2.8261320655       -2.1107685743
 H         -0.4408937377        0.6097571109       -1.3207132021
  78
  -128.850668199200       0.132176693749441      !
 N         -1.9184248973        0.6163318702        2.4605748289
 C         -1.2085848343        0.0874373990        1.7319520799
 C         -0.2826176264       -0.5724511115        0.8909195824
 C          1.0375175471       -0.1354017243        0.8791891973
 C          1.9874470937       -0.8017349283        0.1160880010
 C          3.3683700711       -0.3173819358        0.0902752728
 N          3.5850484348        0.9280071836        0.4950135417
 C          4.8472456210        1.3471326599        0.4314052539
 C          5.1277346151        2.7291576934        0.8150510329
 C          4.0774492721        3.6016227273        1.0959808609
 C          4.3431527613        4.9083395269        1.4553650756
 C          5.6533938570        5.3537976989        1.5389064527
 C          6.7010164314        4.4900403638        1.2592233852
 C          6.4429630786        3.1823784638        0.8970786607
 N          5.8608293712        0.5816831156        0.0392096226
 C          5.5539245550       -0.6589967611       -0.3274565232
 C          6.6436279113       -1.5430209017       -0.7378206774
 C          6.3927246041       -2.8875176445       -1.0062868499
 C          7.4274434706       -3.7214920668       -1.3825253309
 C          8.7163875688       -3.2234620492       -1.4955199478
 C          8.9705989894       -1.8865098586       -1.2310791095
 C          7.9409435301       -1.0471394139       -0.8527263705
 N          4.3135357062       -1.1444325446       -0.3416220989
 C          1.6129341648       -1.9185891003       -0.6321260547
 C          0.3014665141       -2.3448057097       -0.6419752232
 C         -0.6669120065       -1.6777348434        0.1065187596
 N         -1.9914949306       -2.1028139245        0.0947767144
 C         -2.4218316844       -3.3756495442        0.4450945026
 C         -1.6821793486       -4.5190529646        0.6973672028
 C         -2.3697484029       -5.6653892837        1.0531393736
 C         -3.7563447634       -5.6712803693        1.1687947718
 C         -4.4928457881       -4.5240117400        0.9473865600
 C         -3.8251490914       -3.3618416319        0.5853410547
 C         -4.2709492833       -2.0202169115        0.3116511977
 C         -5.5674263610       -1.4954045227        0.3445054587
 C         -5.7057352891       -0.1498435188        0.0414578065
 C         -6.7070915117        0.8945348806       -0.0837166344
 C         -8.0770377651        0.9146421209        0.1173993889
 C         -8.7680647716        2.0958934703       -0.0924704291
 C         -8.1095388710        3.2498547362       -0.4973487584
 C         -6.7397711648        3.2618033760       -0.7073553190
 C         -6.0410497391        2.0878728900       -0.5026011851
 N         -4.6894428116        1.8070537301       -0.6374563646
 C         -3.4492544302        2.2893540850       -1.0096493717
 C         -3.0791665160        3.5465176096       -1.4495973015
 C         -1.7581448537        3.7517976107       -1.8072780333
 C         -0.8335531865        2.7166800951       -1.7535528050
 C         -1.1923498079        1.4545817326       -1.3149010268
 C         -2.4972204823        1.2239465958       -0.9023111502
 C         -3.2072819544        0.0573027556       -0.4074050239
 C         -3.0935260128       -1.2770980876       -0.0052635867
 C         -4.5215717181        0.4996637388       -0.3063866973
 H          1.3314143755        0.7198338913        1.4677535575
 H          3.0641995710        3.2382657233        1.0235450864
 H          3.5284675382        5.5834999844        1.6713373719
 H          5.8583785726        6.3760214114        1.8207350000
 H          7.7207527902        4.8403543483        1.3240270776
 H          7.2451185995        2.4954695815        0.6774200960
 H          5.3846181582       -3.2584971234       -0.9071120650
 H          7.2331909131       -4.7643976805       -1.5857918004
 H          9.5238136944       -3.8785626453       -1.7886916024
 H          9.9754656447       -1.5005201726       -1.3202120744
 H          8.1194934461       -0.0042837558       -0.6433443739
 H          2.3629693946       -2.4239395067       -1.2199859569
 H          0.0032852399       -3.1826704326       -1.2538977404
 H         -0.6046661418       -4.5215382947        0.6321472157
 H         -1.8171523105       -6.5722284979        1.2485310831
 H         -4.2590259306       -6.5856194247        1.4465043535
 H         -5.5664626520       -4.5262375262        1.0570209631
 H         -6.4022207087       -2.1286783395        0.5994090416
 H         -8.5938937393        0.0209264591        0.4332953618
 H         -9.8365736582        2.1233055924        0.0612072113
 H         -8.6747206145        4.1569576020       -0.6518307909
 H         -6.2365871266        4.1633612125       -1.0207862884
 H         -3.8022580501        4.3442821085       -1.5184584847
 H         -1.4459924370        4.7272492955       -2.1492021743
 H          0.1846307469        2.8974122050       -2.0650046583
 H         -0.4610719977        0.6615751935       -1.3181218559
  78
  -128.850598370000       0.122761901263075      !
 N         -1.9053939795        0.6740332335        2.4208959556
 C         -1.1944627306        0.1543497666        1.6868652489
 C         -0.2700511897       -0.4962925771        0.8370545946
 C          1.0519119429       -0.0620677770        0.8296294734
 C          2.0014499223       -0.7277971752        0.0662503678
 C          3.3929567885       -0.2734426760        0.0657812893
 N          3.6365337842        0.9710592381        0.4578127063
 C          4.9129501175        1.3495304534        0.4200095186
 C          5.2288492329        2.7311913366        0.7765260487
 C          4.2034911801        3.6322685560        1.0589614891
 C          4.5043730319        4.9405880022        1.3837269813
 C          5.8250093935        5.3596648243        1.4302006536
 C          6.8482118367        4.4668784567        1.1506187926
 C          6.5549543280        3.1573216113        0.8242640793
 N          5.9130668801        0.5444438436        0.0741464331
 C          5.5780289749       -0.6920343519       -0.2805833374
 C          6.6476634837       -1.6223885030       -0.6379416787
 C          7.9753414612       -1.1988038180       -0.6362420563
 C          8.9836259410       -2.0847048437       -0.9620904076
 C          8.6777104986       -3.3960090138       -1.2917931349
 C          7.3584843442       -3.8221178634       -1.2954039306
 C          6.3452372613       -2.9417961972       -0.9700567680
 N          4.3229745871       -1.1355932208       -0.3279737647
 C          1.6226409478       -1.8311800181       -0.6998070734
 C          0.3099570091       -2.2511538704       -0.7174397551
 C         -0.6556802673       -1.5954053944        0.0450835267
 N         -1.9733968611       -2.0406663237        0.0444170843
 C         -2.3663523022       -3.3314491515        0.3738483077
 C         -1.5934866454       -4.4561844611        0.6112305228
 C         -2.2471059911       -5.6274800674        0.9487253571
 C         -3.6331496451       -5.6765043966        1.0612111894
 C         -4.4026967937       -4.5479377245        0.8575304249
 C         -3.7688806901       -3.3608806165        0.5154696088
 C         -4.2528613115       -2.0279164840        0.2672312032
 C         -5.5643476081       -1.5435787918        0.3142306295
 C         -5.7438860070       -0.1972897854        0.0384123727
 C         -6.7767964660        0.8183317725       -0.0620516867
 C         -8.1455865273        0.7925570968        0.1460042059
 C         -8.8732953915        1.9559421501       -0.0376900189
 C         -8.2521384197        3.1366796807       -0.4239266729
 C         -6.8843093784        3.1947313713       -0.6392053984
 C         -6.1488352084        2.0393208414       -0.4592487276
 N         -4.7898252325        1.8021864106       -0.6038681397
 C         -3.5656250165        2.3304442088       -0.9664030738
 C         -3.2353797313        3.6083871739       -1.3770048594
 C         -1.9215873481        3.8632077266       -1.7291359012
 C         -0.9650687740        2.8565853511       -1.6983268229
 C         -1.2841198595        1.5739968912       -1.2892174758
 C         -2.5810820198        1.2928320788       -0.8832141494
 C         -3.2536856252        0.0941807431       -0.4124102003
 C         -3.0982050616       -1.2442397580       -0.0376801233
 C         -4.5809098599        0.4940254534       -0.3002313422
 H          1.3475464026        0.7858166351        1.4280232413
 H          3.1815090919        3.2898662531        1.0141470155
 H          3.7089309981        5.6380810064        1.6009473913
 H          6.0573227841        6.3836893182        1.6837675057
 H          7.8761775297        4.7962029687        1.1875330914
 H          7.3373571309        2.4486350615        0.6030536248
 H          8.1939935688       -0.1750245708       -0.3770549099
 H         10.0123112403       -1.7556583547       -0.9594486832
 H          9.4683524782       -4.0869691457       -1.5454788600
 H          7.1229388876       -4.8446405458       -1.5516567775
 H          5.3135384589       -3.2565092024       -0.9623623264
 H          2.3717019205       -2.3329635721       -1.2918627494
 H          0.0085842721       -3.0792510131       -1.3409605391
 H         -0.5162094186       -4.4260194592        0.5493823533
 H         -1.6679010176       -6.5200658877        1.1323663164
 H         -4.1087987947       -6.6098067553        1.3229372161
 H         -5.4758824937       -4.5833739863        0.9656109377
 H         -6.3786688162       -2.2068018233        0.5589411441
 H         -8.6330992136       -0.1225041707        0.4472082718
 H         -9.9413774782        1.9477904987        0.1214112258
 H         -8.8454838729        4.0287327851       -0.5589207933
 H         -6.4108266213        4.1171508671       -0.9378502754
 H         -3.9831563276        4.3845033841       -1.4272256030
 H         -1.6402192872        4.8556873112       -2.0480549529
 H          0.0470278839        3.0764706585       -2.0044044672
 H         -0.5279472146        0.8048905321       -1.3091526091
  78
  -128.850497711200       0.110358051613849      !
 N         -1.9198099349        0.6175592905        2.4448905164
 C         -1.2060231782        0.1010117067        1.7113045269
 C         -0.2791990411       -0.5479854973        0.8628430876
 C          1.0413677398       -0.1103184394        0.8581173327
 C          1.9933138825       -0.7713666648        0.0936436222
 C          3.3785927652       -0.2989841340        0.0821611364
 N          3.6025857504        0.9546852351        0.4581341824
 C          4.8713733660        1.3546544372        0.4093772259
 C          5.1651372323        2.7448454427        0.7513534656
 C          4.1239922812        3.6490606416        0.9540248450
 C          4.4041870825        4.9655573995        1.2639249360
 C          5.7195044386        5.3888600750        1.3776419857
 C          6.7580740265        4.4925322128        1.1789524298
 C          6.4858181565        3.1752118780        0.8650833565
 N          5.8835146215        0.5644297754        0.0629074613
 C          5.5678318418       -0.6801742066       -0.2794902501
 C          6.6507458917       -1.5916681337       -0.6450016173
 C          6.3760374848       -2.9303230744       -0.9192895660
 C          7.4022935881       -3.7911664338       -1.2558299285
 C          8.7065627053       -3.3260064437       -1.3220388346
 C          8.9847328480       -1.9952210738       -1.0503763822
 C          7.9635360752       -1.1288781044       -0.7125430770
 N          4.3205935834       -1.1481988163       -0.3096142430
 C          1.6202564963       -1.8791541978       -0.6687275125
 C          0.3083879668       -2.3022045328       -0.6895723605
 C         -0.6615559044       -1.6448927728        0.0660342645
 N         -1.9828911876       -2.0787014983        0.0497728819
 C         -2.3972600252       -3.3643945270        0.3726277185
 C         -1.6429476709       -4.5018292523        0.6087517039
 C         -2.3160330490       -5.6642101736        0.9391204995
 C         -3.7030750608       -5.6920393396        1.0456819073
 C         -4.4542871376       -4.5509863257        0.8425021521
 C         -3.8009656882       -3.3726740484        0.5070356978
 C         -4.2634903901       -2.0314739947        0.2610951867
 C         -5.5669008693       -1.5252415464        0.3051686003
 C         -5.7227461876       -0.1746376949        0.0355023076
 C         -6.7373966958        0.8598690157       -0.0603776262
 C         -8.1065482047        0.8580500351        0.1470429970
 C         -8.8125728885        2.0360794499       -0.0283113002
 C         -8.1697021896        3.2080756429       -0.4055562248
 C         -6.8010345757        3.2421792616       -0.6206362884
 C         -6.0872586517        2.0719610897       -0.4492113923
 N         -4.7325877800        1.8115334309       -0.5943238141
 C         -3.4985354789        2.3202939201       -0.9512522681
 C         -3.1447396178        3.5942874107       -1.3544535590
 C         -1.8256829194        3.8278079371       -1.7020135113
 C         -0.8873580666        2.8041294659       -1.6755029141
 C         -1.2301518771        1.5250907628       -1.2745583895
 C         -2.5324679420        1.2651343745       -0.8715096441
 C         -3.2271170574        0.0761945228       -0.4082195270
 C         -3.0953910442       -1.2654544474       -0.0362538133
 C         -4.5474296257        0.4982673445       -0.2975631286
 H          1.3333865936        0.7393598403        1.4557352643
 H          3.1066006282        3.3027533138        0.8588428181
 H          3.5966196404        5.6663672734        1.4178185223
 H          5.9354095500        6.4189380333        1.6214063461
 H          7.7812653419        4.8246319061        1.2695248906
 H          7.2804116313        2.4632460284        0.7072390433
 H          5.3554643735       -3.2749308975       -0.8584407447
 H          7.1885906342       -4.8288041699       -1.4665960493
 H          9.5074460503       -4.0017931528       -1.5846347282
 H         10.0019696967       -1.6356007851       -1.1025261673
 H          8.1600478122       -0.0899226971       -0.4995832877
 H          2.3722046147       -2.3800011460       -1.2580376392
 H          0.0109174205       -3.1313832841       -1.3134506223
 H         -0.5651296829       -4.4880632002        0.5513077633
 H         -1.7515393701       -6.5664377824        1.1215804203
 H         -4.1942581415       -6.6186815018        1.3024512426
 H         -5.5283107421       -4.5704096115        0.9459801762
 H         -6.3931783588       -2.1754226793        0.5447886787
 H         -8.6111808565       -0.0497806167        0.4418694144
 H         -9.8805207570        2.0466555142        0.1313825389
 H         -8.7463955527        4.1120743961       -0.5336959408
 H         -6.3101426023        4.1577979021       -0.9120690352
 H         -3.8784378460        4.3838484242       -1.4024684082
 H         -1.5260683708        4.8169577928       -2.0144960768
 H          0.1290889900        3.0073340784       -1.9786819982
 H         -0.4881040472        0.7425182551       -1.2989933323
  78
  -128.850243964300       8.437038351068168E-002 !
 N         -1.9524448246        0.3906084877        2.5718784386
 C         -1.2332084697       -0.1057044176        1.8295184525
 C         -0.2987645735       -0.7311639793        0.9719605958
 C          1.0185934936       -0.2865497467        0.9811426840
 C          1.9731921030       -0.9189906133        0.1958789038
 C          3.3361221216       -0.3874930175        0.1467144728
 N          3.4926322392        0.8913164148        0.4665952924
 C          4.7291972631        1.3702429446        0.3501253642
 C          4.9336152123        2.7951846881        0.6018681891
 C          6.2194227083        3.3323116696        0.6051679092
 C          6.4020476208        4.6836047168        0.8253494561
 C          5.3078182768        5.5074918125        1.0404553114
 C          4.0266703316        4.9776519388        1.0372253797
 C          3.8362912579        3.6270122631        0.8204435798
 N          5.7780458626        0.6294861602        0.0053010422
 C          5.5324037699       -0.6484859570       -0.2665757775
 C          6.6616252757       -1.5055340181       -0.6230861318
 C          6.4636845428       -2.8660272136       -0.8522217286
 C          7.5342735895       -3.6734859657       -1.1833341524
 C          8.8068537565       -3.1332997138       -1.2876168929
 C          9.0087118724       -1.7806402661       -1.0602654988
 C          7.9428052037       -0.9671931936       -0.7291757654
 N          4.3165737999       -1.1938722864       -0.2403725312
 C          1.6127224869       -2.0235634386       -0.5765343301
 C          0.3023126428       -2.4528757136       -0.6115754953
 C         -0.6759647442       -1.8023263059        0.1381849067
 N         -2.0091206201       -2.1931901669        0.0689241849
 C         -2.4945325522       -3.4635897416        0.3455629740
 C         -1.8034209610       -4.6424523597        0.5707365096
 C         -2.5419157431       -5.7783846822        0.8494735161
 C         -3.9313174451       -5.7403015595        0.9152756425
 C         -4.6202200416       -4.5588680739        0.7216669707
 C         -3.9009294503       -3.4056900660        0.4383762200
 C         -4.2905646266       -2.0373428840        0.2145654682
 C         -5.5664394576       -1.4637192147        0.2424290581
 C         -5.6442998475       -0.0993162945        0.0096121000
 C         -6.5992389998        0.9920635690       -0.0714903745
 C         -7.9705348467        1.0589960309        0.1092354795
 C         -8.6075917391        2.2793093444       -0.0396311537
 C         -7.8942901360        3.4259324819       -0.3645494129
 C         -6.5216107906        3.3915979506       -0.5520760726
 C         -5.8764035657        2.1788822376       -0.4063845839
 N         -4.5351970045        1.8495028823       -0.5347715593
 C         -3.2674523803        2.3020670872       -0.8464286074
 C         -2.8353669612        3.5680286835       -1.1953614683
 C         -1.4980420127        3.7404607001       -1.5071442270
 C         -0.6189550949        2.6651545772       -1.5041238804
 C         -1.0405971970        1.3935721296       -1.1586275257
 C         -2.3619922824        1.1933156136       -0.7840083732
 C         -3.1297687117        0.0303522894       -0.3727670028
 C         -3.0781554087       -1.3249207790       -0.0316637145
 C         -4.4279847412        0.5190512932       -0.2789402707
 H          1.3032742714        0.5543566697        1.5943867251
 H          7.0583263991        2.6757237167        0.4359503325
 H          7.3988474348        5.0995831669        0.8285492608
 H          5.4537650811        6.5643477678        1.2097362523
 H          3.1755388255        5.6212288814        1.2044099555
 H          2.8463193983        3.1979542576        0.8111636889
 H          5.4669397861       -3.2688505372       -0.7625501283
 H          7.3800453736       -4.7277859927       -1.3608404579
 H          9.6422577140       -3.7670355629       -1.5472151409
 H         10.0009807699       -1.3621146714       -1.1432694585
 H          8.0798876319        0.0874495882       -0.5493956648
 H          2.3698082533       -2.5105863918       -1.1710144449
 H          0.0124931955       -3.2731529554       -1.2507046977
 H         -0.7248977383       -4.6793654287        0.5433760378
 H         -2.0281311291       -6.7122529447        1.0223341923
 H         -4.4744867811       -6.6480874701        1.1314945602
 H         -5.6966689124       -4.5283060754        0.7925903666
 H         -6.4313315045       -2.0748091895        0.4459382616
 H         -8.5297644838        0.1713834594        0.3643259097
 H         -9.6764731704        2.3435162239        0.0999310940
 H         -8.4181335926        4.3639839723       -0.4733930668
 H         -5.9755529454        4.2877121725       -0.8032244961
 H         -3.5234368431        4.3983744515       -1.2284948632
 H         -1.1374803409        4.7222724630       -1.7753870356
 H          0.4129078430        2.8211031501       -1.7824117437
 H         -0.3439161384        0.5715794708       -1.2049345841
