  96
       -146.65527208
 C         -4.5989440874       -2.9242008300       -2.9249648207
 C         -5.0931563569       -3.2064066893       -1.6627779005
 C         -5.2560341318       -2.1928456285       -0.7360668413
 C         -4.9283323142       -0.8796778501       -1.0549920192
 C         -5.0953818579        0.2230702609       -0.0060452167
 C         -6.5310502942        0.6958559699        0.0953458637
 C         -7.5343443938        0.2298927943       -0.7407313965
 C         -8.8306417941        0.7017962557       -0.6108109700
 C         -9.1383282219        1.6449403120        0.3526994314
 C         -8.1402863711        2.1196155559        1.1886326619
 C         -6.8478507461        1.6491147888        1.0598019855
 C         -4.6116783776       -0.3554640441        1.3080998082
 C         -5.4606735825       -0.8492641067        2.2849222535
 C         -4.9552609254       -1.4755223833        3.4116662263
 C         -3.5839481586       -1.6187246291        3.5670599685
 C         -2.7239307265       -1.1279245132        2.6073283872
 C         -3.2287973577       -0.4948091522        1.4706156758
 N         -2.3635130245        0.0646350659        0.5363346591
 C         -1.1524933087       -0.5670485596        0.2830391671
 C         -1.1640094685       -1.9296210010        0.0684512658
 N         -0.0356237613       -2.6117373759       -0.1947651289
 C          1.0970322633       -1.9012264476       -0.3104705297
 C          1.1037160985       -0.5264299528       -0.2059879974
 N          2.3201394504        0.1334870743       -0.3441543380
 C          2.8138343070        1.0344323301        0.5960827148
 C          1.9575136682        1.8059268991        1.3791406177
 C          2.4701399525        2.7503778310        2.2453297479
 C          3.8397351018        2.9345716642        2.3437341179
 C          4.6954794740        2.1456821529        1.5928609323
 C          4.2009065021        1.1881141559        0.7225765529
 C          5.0962141136        0.2018152953       -0.0034104568
 C          5.0416699674       -1.1105364397        0.7836912879
 C          5.0041605366       -2.3382947777        0.1349416517
 C          4.9378953741       -3.5163925892        0.8588327968
 C          4.9136217305       -3.4864217832        2.2418852312
 C          4.9670742021       -2.2676851177        2.8963426379
 C          5.0303619653       -1.0901182869        2.1735633197
 C          6.5120244714        0.7283488327       -0.1256551946
 C          6.7114100870        1.9444614469       -0.7742601263
 C          7.9825643459        2.4646549712       -0.9223907065
 C          9.0771604829        1.7746646615       -0.4260108104
 C          8.8877203016        0.5639957954        0.2152027647
 C          7.6127538134        0.0420646372        0.3645819459
 C          4.4979702817       -0.0374402859       -1.3726619058
 C          5.2628704218       -0.2508841552       -2.5077858294
 C          4.6653800211       -0.5713567574       -3.7150388051
 C          3.2847970528       -0.6867745237       -3.7938231822
 C          2.5074581354       -0.4728226738       -2.6752095950
 C          3.1050641280       -0.1485983038       -1.4559173783
 N         -0.0187348963        0.1618307462        0.1303901634
 C         -2.7974666997        1.1951071848       -0.1554760487
 C         -1.8997458790        2.1588242209       -0.6082272553
 C         -2.3635956698        3.3042743096       -1.2238388838
 C         -3.7240812022        3.4993201426       -1.3988361796
 C         -4.6184303152        2.5285240878       -0.9790550732
 C         -4.1724265725        1.3712234534       -0.3623590469
 C         -4.4485330429       -0.6027339047       -2.3282791705
 C         -4.2833206652       -1.6183258994       -3.2545539135
 H         -4.4640688679       -3.7161733376       -3.6462896767
 H         -5.3509066319       -4.2212471933       -1.3963607377
 H         -5.6413229875       -2.4254683316        0.2450987980
 H         -7.3072503742       -0.5037371636       -1.4991400202
 H         -9.6016800115        0.3285914523       -1.2687443742
 H        -10.1491205570        2.0113677635        0.4517233235
 H         -8.3701787451        2.8587664149        1.9418676373
 H         -6.0687004141        2.0216432162        1.7091929985
 H         -6.5285470651       -0.7549854301        2.1576438746
 H         -5.6295741161       -1.8596469563        4.1615202306
 H         -3.1854742020       -2.1086549645        4.4424069050
 H         -1.6557270508       -1.2232005920        2.7268048479
 H         -2.0913890899       -2.4794684427        0.0589790637
 H          2.0167779861       -2.4477552108       -0.4450666194
 H          0.8947107034        1.6489678894        1.2944090838
 H          1.7973913040        3.3450688769        2.8448872162
 H          4.2438261903        3.6729105785        3.0195646648
 H          5.7632636528        2.2650476336        1.6982949580
 H          5.0283274537       -2.3808377009       -0.9433233271
 H          4.9038483066       -4.4616565915        0.3367761963
 H          4.8566381365       -4.4055931778        2.8054632038
 H          4.9568316327       -2.2318424572        3.9759368926
 H          5.0711605118       -0.1466028704        2.6959269147
 H          5.8578708702        2.4811397274       -1.1630106313
 H          8.1207799846        3.4098149675       -1.4266255826
 H         10.0715360434        2.1794656639       -0.5408259998
 H          9.7354572034        0.0178605653        0.6022550257
 H          7.4793074502       -0.9054887039        0.8639790578
 H          6.3380540645       -0.1827903127       -2.4427673562
 H          5.2751457996       -0.7398077272       -4.5891937732
 H          2.8141010986       -0.9383037297       -4.7320666090
 H          1.4324941090       -0.5474153070       -2.7317603121
 H         -0.8442927618        1.9883437354       -0.4740312683
 H         -1.6593169717        4.0463055125       -1.5690252274
 H         -4.0891535472        4.3930559490       -1.8815556344
 H         -5.6750412347        2.6632286196       -1.1528795102
 H         -4.2007314767        0.4106861637       -2.6041252243
 H         -3.9044924352       -1.3848528398       -4.2389522215
