  96
       -146.74720971
 C         -1.9972714983        1.3257994788        3.3897362849
 C         -2.8190684897        2.1360674383        2.6275054395
 C         -3.5450195748        1.6026336928        1.5766191955
 C         -3.4476994271        0.2531702067        1.2630174887
 C         -4.1602491335       -0.3408231740        0.0462642449
 C         -5.4436233035       -1.0512799536        0.4136544734
 C         -5.9384798227       -1.0677631430        1.7094414404
 C         -7.1200011325       -1.7294830480        2.0013252030
 C         -7.8220196275       -2.3801766455        1.0030048800
 C         -7.3386026675       -2.3632009957       -0.2953438329
 C         -6.1602193028       -1.7031823713       -0.5872118432
 C         -4.4040556348        0.7714822954       -0.9596224627
 C         -5.6468937963        1.2920086227       -1.2780252294
 C         -5.7556618331        2.3397667900       -2.1780463468
 C         -4.6237774988        2.8699322019       -2.7727637567
 C         -3.3746525981        2.3599988684       -2.4654638156
 C         -3.2630408540        1.3257365760       -1.5475436743
 N         -2.0176242769        0.7517921011       -1.2263811583
 C         -1.0227160161        1.4384227306       -0.5761264519
 C         -1.0084039862        2.8312509602       -0.4210542212
 N         -0.0158142838        3.4277338053        0.2114849224
 C          0.9509901071        2.6927944480        0.7254581174
 C          0.9173578503        1.2938807449        0.6276972993
 N          1.8871997658        0.4758447425        1.1463431274
 C          1.9340519437       -0.8943553768        0.8116328752
 C          0.8671585280       -1.7395940612        1.0693210342
 C          0.9798357181       -3.0853177604        0.7700788020
 C          2.1500337518       -3.5812091355        0.2219110016
 C          3.2141745125       -2.7333031459       -0.0406948108
 C          3.1167907368       -1.3844075973        0.2553016445
 C          4.1724266303       -0.3370817804       -0.0675856417
 C          3.5968460097        0.5369882634       -1.1837444570
 C          3.8622187882        1.9001193862       -1.2289450724
 C          3.2751257869        2.7010295866       -2.1922905048
 C          2.4209647752        2.1499526006       -3.1307400630
 C          2.1790901041        0.7874510716       -3.1149335888
 C          2.7642493548       -0.0136365783       -2.1511209160
 C          5.4981304614       -0.9606787536       -0.4406466774
 C          6.1258605370       -1.8017948028        0.4753216332
 C          7.3406551276       -2.3885778775        0.1767022549
 C          7.9491373340       -2.1432149542       -1.0436609640
 C          7.3326994072       -1.3088515766       -1.9583402443
 C          6.1145004225       -0.7205643336       -1.6598010468
 C          4.2856263957        0.5263123247        1.1785698878
 C          5.4733244821        0.9487535938        1.7511494246
 C          5.4570192449        1.7788391676        2.8603683065
 C          4.2537189925        2.1876783833        3.4095196490
 C          3.0587716077        1.7732358705        2.8491898433
 C          3.0744622614        0.9586759815        1.7256582971
 N         -0.0624628922        0.6918518083       -0.0387484517
 C         -2.0394886601       -0.6595919207       -1.1772482844
 C         -1.0082526277       -1.4095171675       -1.7190923984
 C         -1.0889600897       -2.7896829620       -1.6974914462
 C         -2.1938478915       -3.4121518697       -1.1421157916
 C         -3.2199863440       -2.6603759127       -0.5930599092
 C         -3.1532411510       -1.2772359235       -0.6088382749
 C         -2.6458954681       -0.5599973647        2.0564748919
 C         -1.9266253007       -0.0283766369        3.1112025644
 H         -1.4199220743        1.7456251140        4.2003206780
 H         -2.8904910852        3.1920097729        2.8425074439
 H         -4.1822794451        2.2497609300        0.9915298273
 H         -5.4020101155       -0.5613889548        2.4981673925
 H         -7.4917392621       -1.7344055139        3.0155889294
 H         -8.7420731951       -2.8968386060        1.2330957332
 H         -7.8817416742       -2.8655120477       -1.0826017097
 H         -5.7863990104       -1.6885745180       -1.6015175063
 H         -6.5338901049        0.8904050130       -0.8113144229
 H         -6.7292190271        2.7425277555       -2.4132355843
 H         -4.7121988013        3.6797182163       -3.4812193287
 H         -2.4870121949        2.7532634133       -2.9371817024
 H         -1.7941198517        3.4710419542       -0.7906298561
 H          1.7588358290        3.2269285606        1.2005681806
 H         -0.0395819066       -1.3357915127        1.4866977874
 H          0.1503744157       -3.7474838265        0.9671102724
 H          2.2355235574       -4.6316293887       -0.0141604896
 H          4.1145315749       -3.1229493818       -0.4924789980
 H          4.5253895839        2.3438109667       -0.5004254182
 H          3.4795687747        3.7616230501       -2.2020307207
 H          1.9506314319        2.7779137784       -3.8729022948
 H          1.5263077908        0.3456593578       -3.8544759287
 H          2.5640375187       -1.0750970353       -2.1448146542
 H          5.6532445127       -1.9935671553        1.4285225649
 H          7.8145485229       -3.0387820136        0.8976706672
 H          8.8988617799       -2.6007598810       -1.2782858372
 H          7.8008184219       -1.1112419423       -2.9116421032
 H          5.6448537500       -0.0696145180       -2.3823104493
 H          6.4162804015        0.6430652944        1.3228957027
 H          6.3889523010        2.1076142798        3.2948801268
 H          4.2441661984        2.8266635788        4.2796637315
 H          2.1141357607        2.0707658728        3.2786107584
 H         -0.1515818771       -0.9071556649       -2.1373672297
 H         -0.2872766757       -3.3799539412       -2.1149196809
 H         -2.2555683222       -4.4903078746       -1.1238550979
 H         -4.0655193455       -3.1551312385       -0.1378382407
 H         -2.5798102488       -1.6168131213        1.8406564870
 H         -1.3014757996       -0.6727579732        3.7131354987
