  71
       -120.86362116
 Cl        -1.6472256255       -1.4643536482       -1.9591386532
 C         -0.9404206568       -0.9593517468       -0.3885307047
 C          0.4753053679       -1.2849429228       -0.2391489858
 N          0.9064613414       -2.5804535081       -0.3277775966
 C          2.2109527779       -2.9795504651       -0.6081316013
 C          3.3440955544       -2.2162641339       -0.8471742969
 C          4.5281826050       -2.8811695951       -1.1140123829
 C          4.5908774641       -4.2704344773       -1.1537589619
 C          3.4615576145       -5.0369013800       -0.9281219184
 C          2.2665620859       -4.3903546394       -0.6543755043
 C          0.9382206766       -4.8669095894       -0.3715923117
 C          0.3995108386       -6.1388791884       -0.2581742025
 C         -0.9384577910       -6.2643928451        0.0686585599
 C         -1.7234821262       -5.1377394454        0.2914762348
 C         -1.2034090210       -3.8600684298        0.1850403521
 C          0.1306046483       -3.7245787755       -0.1693085294
 N          1.3608686634       -0.3405628963       -0.0849175672
 C          1.0256177348        0.9511125366        0.0427243048
 N          2.0624091735        1.8520216099        0.1927695547
 C          2.1439652534        3.1062770736       -0.3817286147
 C          1.3099098870        3.7063493966       -1.3145686005
 C          1.6382333549        4.9744124571       -1.7553210988
 C          2.7774884561        5.6296737712       -1.2946207550
 C          3.6384732750        5.0178202144       -0.4016956182
 C          3.3293375892        3.7449093302        0.0528369643
 C          4.0046060512        2.8095277334        0.9128391684
 C          5.1960795204        2.8513281818        1.6209969026
 C          5.5656756071        1.7414532007        2.3594677028
 C          4.7612704692        0.6051781145        2.4007345643
 C          3.5659343802        0.5428201880        1.7086601425
 C          3.1970858605        1.6495886408        0.9587818964
 C         -0.3378629643        1.3324546662        0.1880655486
 Cl        -0.7370222151        2.8926920907        0.8550568343
 C         -1.3154462234        0.3863672146        0.0092987006
 N         -2.6676998441        0.6691645306        0.1701016191
 C         -3.5250821440       -0.0576699667        0.9662208272
 C         -3.2400053909       -1.1130280120        1.8192984673
 C         -4.2926450159       -1.6759303344        2.5168346414
 C         -5.5899054288       -1.1851104024        2.3898945735
 C         -5.8703660053       -0.1069933468        1.5696278335
 C         -4.8324186417        0.4678646994        0.8516327207
 C         -4.7443408272        1.5730378324       -0.0657661512
 C         -5.6754312081        2.4581312630       -0.5879871856
 C         -5.2490845272        3.4058512809       -1.5003394055
 C         -3.9190808197        3.4615109834       -1.9087305847
 C         -2.9734262867        2.5891797901       -1.4035678766
 C         -3.3889171375        1.6585764274       -0.4628223510
 H          3.3013381096       -1.1414229595       -0.8209008438
 H          5.4226034003       -2.3047272538       -1.2963748659
 H          5.5324118406       -4.7537773066       -1.3667777259
 H          3.5051177794       -6.1147240706       -0.9643542185
 H          1.0162177639       -7.0100070762       -0.4179721332
 H         -1.3790319619       -7.2454471762        0.1619358333
 H         -2.7623656422       -5.2584756094        0.5593674093
 H         -1.8245967182       -3.0005396108        0.3704290262
 H          0.4409993636        3.1957551331       -1.6975691341
 H          1.0013095153        5.4638232945       -2.4768145816
 H          2.9980259624        6.6223680412       -1.6568158566
 H          4.5380896725        5.5141911737       -0.0711328362
 H          5.8192403638        3.7322985204        1.5940310962
 H          6.4908724631        1.7540264156        2.9157535807
 H          5.0755168180       -0.2446757815        2.9877102610
 H          2.9419138681       -0.3353708863        1.7403150364
 H         -2.2285171544       -1.4676627710        1.9427691981
 H         -4.1029176954       -2.5055815274        3.1814474153
 H         -6.3854203815       -1.6478373673        2.9540658616
 H         -6.8738464472        0.2823083393        1.4905091113
 H         -6.7118280883        2.4006168934       -0.2914898945
 H         -5.9578032232        4.1067659691       -1.9150693351
 H         -3.6206542152        4.1992709323       -2.6385541944
 H         -1.9498814748        2.6247922687       -1.7405650216
