  71
  -120.456352873100       0.407059123964262      !
 Cl        -1.9121752099       -1.5285656323       -1.6299944560
 C         -1.0335768070       -0.9111458340       -0.2012476071
 C          0.3558567596       -1.3482321661       -0.1064526453
 N          0.6753270552       -2.6729912245       -0.2582226027
 C          1.8767953427       -3.1519259909       -0.7687760761
 C          2.9985152561       -2.4570790839       -1.1951580407
 C          4.0563863548       -3.1888752631       -1.7054963203
 C          4.0050236224       -4.5765623621       -1.7947414210
 C          2.8867210533       -5.2744158765       -1.3739161183
 C          1.8158695981       -4.5605075545       -0.8594841546
 C          0.5260540537       -4.9515616602       -0.3531626122
 C         -0.0812018196       -6.1830630158       -0.1651628567
 C         -1.3479282125       -6.2183547764        0.3898362186
 C         -1.9953013808       -5.0444874823        0.7629020677
 C         -1.4048867593       -3.8060171787        0.5862701147
 C         -0.1458232587       -3.7609352174        0.0068833434
 N          1.3280049500       -0.4934995600        0.0334665416
 C          1.1180162949        0.8285165233        0.1286233163
 N          2.2318790998        1.6322974454        0.3013110463
 C          2.5210529993        2.7821447299       -0.4054484384
 C          1.8428053959        3.3530458665       -1.4728328509
 C          2.3746739621        4.4962532453       -2.0385935280
 C          3.5582826129        5.0563416981       -1.5634899097
 C          4.2538826105        4.4751805140       -0.5184793473
 C          3.7394383093        3.3272338113        0.0649044598
 C          4.2031650608        2.4489868010        1.1063864002
 C          5.3078430637        2.4541677619        1.9445142149
 C          5.4429853727        1.4313853178        2.8665948302
 C          4.4966246197        0.4130725765        2.9579053586
 C          3.3878116168        0.3853367030        2.1326403152
 C          3.2504179663        1.4082668881        1.2065715980
 C         -0.2034761476        1.3526687962        0.1961858531
 Cl        -0.4418403639        3.0018570586        0.7011915824
 C         -1.2697211701        0.5001036559        0.0597815781
 N         -2.5873950832        0.9384183759        0.1313242562
 C         -3.5577186721        0.3709845400        0.9280733844
 C         -3.4396336309       -0.6576415061        1.8500900461
 C         -4.5802532388       -1.0480404885        2.5267084759
 C         -5.8014575572       -0.4140304858        2.3117217246
 C         -5.9144288932        0.6382110977        1.4205645523
 C         -4.7858083046        1.0403589968        0.7224833733
 C         -4.5284293785        2.0664712485       -0.2528815041
 C         -5.3233936612        3.0229872308       -0.8657470466
 C         -4.7508210807        3.8521156349       -1.8132380684
 C         -3.4117667065        3.7166095990       -2.1695823099
 C         -2.6002702033        2.7692107716       -1.5741542752
 C         -3.1589906797        1.9619118563       -0.5939598726
 H          3.0400837665       -1.3833769725       -1.1261022835
 H          4.9399391736       -2.6689530229       -2.0440364028
 H          4.8487708917       -5.1133338793       -2.2016129840
 H          2.8433785229       -6.3503596195       -1.4476216330
 H          0.4291491975       -7.0929088080       -0.4418793517
 H         -1.8389808243       -7.1670629987        0.5452537332
 H         -2.9785468773       -5.0984839903        1.2055351252
 H         -1.9147826813       -2.9061090045        0.8854637832
 H          0.9382023865        2.9108014322       -1.8593767919
 H          1.8657907850        4.9606798595       -2.8700231596
 H          3.9424567577        5.9507029462       -2.0303738247
 H          5.1834903627        4.8979280683       -0.1689180054
 H          6.0420732196        3.2428849693        1.8804946398
 H          6.2942529361        1.4211139771        3.5306428778
 H          4.6301740251       -0.3681846016        3.6910221623
 H          2.6532280246       -0.4014718404        2.1975152267
 H         -2.4844886210       -1.1228638598        2.0381910016
 H         -4.5210983205       -1.8535301652        3.2434641042
 H         -6.6704653620       -0.7443270552        2.8606280320
 H         -6.8597188843        1.1372064508        1.2704286000
 H         -6.3684650795        3.1120348484       -0.6107403004
 H         -5.3516489795        4.6076454461       -2.2966557220
 H         -2.9985841521        4.3626948864       -2.9297550488
 H         -1.5707106550        2.6557577934       -1.8731186292
  71
  -120.456096667300       0.310394101956568      !
 Cl        -1.7546617092       -1.3279389071       -1.9630712356
 C         -1.0259905923       -0.8670704509       -0.3888894858
 C          0.3470748824       -1.3305024290       -0.2085379045
 N          0.6467336497       -2.6642414894       -0.2672143260
 C          1.9086748123       -3.1977046041       -0.5172068544
 C          3.1167417744       -2.5568748318       -0.7488777495
 C          4.2318788854       -3.3423892912       -0.9829722550
 C          4.1547576490       -4.7314176728       -0.9977985473
 C          2.9503893791       -5.3760483333       -0.7794060271
 C          1.8224374667       -4.6075691563       -0.5382870978
 C          0.4484079257       -4.9427190440       -0.2713053991
 C         -0.2176152453       -6.1517052691       -0.1458300588
 C         -1.5665249942       -6.1358578394        0.1590055276
 C         -2.2374009036       -4.9319770550        0.3483606890
 C         -1.5894546932       -3.7153136891        0.2294329017
 C         -0.2430284312       -3.7213581954       -0.1031521718
 N          1.3207701930       -0.4772231956       -0.0546051036
 C          1.1154976490        0.8437917871        0.0448617492
 N          2.2353128651        1.6385419714        0.1980715693
 C          2.4522360241        2.8671906250       -0.3962542152
 C          1.6981415813        3.5304101273       -1.3540678970
 C          2.1597732138        4.7504991917       -1.8104908374
 C          3.3517196284        5.2964400539       -1.3406752332
 C          4.1320591684        4.6180411036       -0.4220784774
 C          3.6888033337        3.3914597837        0.0485481163
 C          4.2522967945        2.4092855636        0.9364326468
 C          5.4303129428        2.3443959200        1.6650690241
 C          5.6740959481        1.2170922166        2.4289532237
 C          4.7586200616        0.1684470822        2.4752018441
 C          3.5744281031        0.2135785667        1.7629263099
 C          3.3312597041        1.3375019396        0.9877047905
 C         -0.2047338410        1.3629813457        0.1591269188
 Cl        -0.4552050201        2.9677375680        0.7920313026
 C         -1.2697435761        0.5167947949       -0.0209582439
 N         -2.5889963804        0.9371189668        0.1106524855
 C         -3.5280685839        0.3153155202        0.9035600831
 C         -3.3647153891       -0.7470988299        1.7795636798
 C         -4.4798955531       -1.1880528609        2.4676034049
 C         -5.7188116505       -0.5717490736        2.3089871684
 C         -5.8758072767        0.5134588588        1.4654777363
 C         -4.7737060569        0.9673978468        0.7565166785
 C         -4.5597929105        2.0406300116       -0.1779349959
 C         -5.3882994925        3.0048692648       -0.7318790301
 C         -4.8538503078        3.8875536725       -1.6525112060
 C         -3.5185921091        3.8014831281       -2.0378274708
 C         -2.6740346931        2.8481531931       -1.5008932345
 C         -3.1964170520        1.9819389351       -0.5519744076
 H          3.1821989830       -1.4828790137       -0.7417798495
 H          5.1827106705       -2.8623495559       -1.1590721592
 H          5.0460550275       -5.3109173805       -1.1855572714
 H          2.8855908479       -6.4532783788       -0.7963942430
 H          0.3105795922       -7.0832881948       -0.2795838380
 H         -2.1052568795       -7.0657032025        0.2611299951
 H         -3.2873559877       -4.9425633819        0.5995660105
 H         -2.1236902547       -2.7943362298        0.3888875680
 H          0.7884622818        3.1026556108       -1.7438255834
 H          1.5872025900        5.2877965585       -2.5515861156
 H          3.6770845251        6.2549242104       -1.7157882865
 H          5.0716962238        5.0275712183       -0.0839470918
 H          6.1395099278        3.1575711342        1.6342301466
 H          6.5867339700        1.1470437453        3.0014795014
 H          4.9760177862       -0.6974883704        3.0821918786
 H          2.8645805259       -0.5966571721        1.7983898059
 H         -2.3962839660       -1.1992604918        1.9272447435
 H         -4.3855819727       -2.0199073627        3.1496230042
 H         -6.5659532847       -0.9414222992        2.8666091589
 H         -6.8334925997        1.0001359250        1.3616855034
 H         -6.4298661392        3.0574619054       -0.4531139419
 H         -5.4814625260        4.6482444310       -2.0918481816
 H         -3.1355206230        4.4916117237       -2.7746920716
 H         -1.6468077486        2.7743029156       -1.8200017543
  71
  -120.455693567800       0.202610410539287      !
 Cl        -1.6546506532       -1.2114337926       -2.1019118606
 C         -1.0176347171       -0.8408629599       -0.4604830248
 C          0.3429011983       -1.3205583366       -0.2342218549
 N          0.6311249130       -2.6565978300       -0.2695456462
 C          1.9053589757       -3.2052540939       -0.4023393037
 C          3.1372507940       -2.5805224697       -0.5286972603
 C          4.2608955084       -3.3803509381       -0.6438543741
 C          4.1706152826       -4.7685152623       -0.6475198607
 C          2.9433244518       -5.3974642497       -0.5400233265
 C          1.8064975771       -4.6141511751       -0.4174461278
 C          0.4101040100       -4.9336302647       -0.2785418371
 C         -0.2760045433       -6.1361181626       -0.2148931844
 C         -1.6478805578       -6.1072469771       -0.0430214681
 C         -2.3216437621       -4.8964584786        0.0784139077
 C         -1.6535575961       -3.6860968277        0.0201500836
 C         -0.2815076266       -3.7047228223       -0.1814602519
 N          1.3172439496       -0.4715924609       -0.0549263910
 C          1.1119663109        0.8488850267        0.0429912824
 N          2.2316304325        1.6457404483        0.1862386062
 C          2.4497990920        2.8600891440       -0.4370462521
 C          1.6821011942        3.5135253242       -1.3903735860
 C          2.1495165193        4.7173152936       -1.8831024891
 C          3.3593112127        5.2561329712       -1.4526868764
 C          4.1505232464        4.5874520983       -0.5364399982
 C          3.7012894433        3.3776983889       -0.0289499000
 C          4.2702655084        2.4084393311        0.8697956077
 C          5.4614487032        2.3449088106        1.5768788704
 C          5.7047635562        1.2334899425        2.3637108708
 C          4.7746043664        0.2010462994        2.4565867866
 C          3.5774935538        0.2451892801        1.7661940799
 C          3.3371095434        1.3503505821        0.9637283949
 C         -0.2053701404        1.3705176241        0.1563212792
 Cl        -0.4479789858        2.9660406846        0.8170681022
 C         -1.2708806206        0.5287704230       -0.0437588952
 N         -2.5916258013        0.9321269248        0.1143823182
 C         -3.5135300897        0.2662609992        0.8924930016
 C         -3.3269201373       -0.8325604753        1.7176262957
 C         -4.4276060461       -1.3146809662        2.4016767795
 C         -5.6739801954       -0.7033688198        2.2898315226
 C         -5.8536055774        0.4170133821        1.4983203208
 C         -4.7667974716        0.9124420276        0.7934077530
 C         -4.5765400694        2.0283684200       -0.0950357904
 C         -5.4220501314        3.0086591853       -0.5919989580
 C         -4.9098961626        3.9371904231       -1.4797143762
 C         -3.5804318083        3.8807249718       -1.8895071520
 C         -2.7193536880        2.9116101759       -1.4098938986
 C         -3.2185040227        1.9995780285       -0.4918853200
 H          3.2152742606       -1.5076582842       -0.5331794216
 H          5.2291303988       -2.9114112014       -0.7348841294
 H          5.0693316326       -5.3594458976       -0.7398865418
 H          2.8675716087       -6.4740634836       -0.5503018667
 H          0.2541427216       -7.0727062249       -0.2953493068
 H         -2.2029109633       -7.0317429067        0.0077036884
 H         -3.3909496010       -4.8956075434        0.2274324598
 H         -2.1933369728       -2.7608788434        0.1273176346
 H          0.7577229836        3.0904532116       -1.7493875474
 H          1.5669535527        5.2473047468       -2.6217777655
 H          3.6891168760        6.2014642002       -1.8563628835
 H          5.1026243179        4.9913010495       -0.2276802826
 H          6.1805390126        3.1473494380        1.5127152368
 H          6.6278391430        1.1642784740        2.9193373342
 H          4.9904220890       -0.6512433198        3.0832177034
 H          2.8555819730       -0.5516642735        1.8403756075
 H         -2.3526566397       -1.2820467852        1.8301353087
 H         -4.3151607838       -2.1754031920        3.0438853313
 H         -6.5092921361       -1.1055394028        2.8430715613
 H         -6.8174096323        0.8982939746        1.4308433331
 H         -6.4592529790        3.0395832854       -0.2946342728
 H         -5.5508438159        4.7115839911       -1.8734263538
 H         -3.2148695282        4.6069238947       -2.6001428643
 H         -1.6971969159        2.8615781180       -1.7486573218
  71
  -120.454814661500       7.993636353988250E-002 !
 Cl        -1.5597581393       -1.0828401576       -2.2297164014
 C         -1.0007767884       -0.8048278448       -0.5387469379
 C          0.3436706657       -1.3107240813       -0.2772319481
 N          0.6079664024       -2.6514436447       -0.2927783335
 C          1.8789159731       -3.2236489931       -0.3232863211
 C          3.1271568750       -2.6224044948       -0.3887341643
 C          4.2420339936       -3.4425200826       -0.4016200300
 C          4.1285530646       -4.8284250432       -0.3639159235
 C          2.8861528511       -5.4346963368       -0.3191658207
 C          1.7575166126       -4.6304376875       -0.3001272274
 C          0.3497265580       -4.9247249657       -0.2519832220
 C         -0.3574283174       -6.1157102812       -0.2019358230
 C         -1.7378065357       -6.0642382404       -0.1391554806
 C         -2.3999945113       -4.8415605537       -0.1171831531
 C         -1.7108837798       -3.6423679856       -0.1623587244
 C         -0.3270700302       -3.6838340696       -0.2453227729
 N          1.3252880855       -0.4735565775       -0.0748244866
 C          1.1269810238        0.8467401616        0.0283982306
 N          2.2474591406        1.6444349754        0.1611562685
 C          2.4575723607        2.8467441190       -0.4875996400
 C          1.6803428859        3.4759073927       -1.4491493893
 C          2.1417334823        4.6685245701       -1.9735884592
 C          3.3536456061        5.2191545225       -1.5646050707
 C          4.1511966110        4.5760800923       -0.6356398316
 C          3.7080089787        3.3779580459       -0.0958599949
 C          4.2812406025        2.4331704710        0.8263217739
 C          5.4696834345        2.3950049914        1.5399178093
 C          5.7151282972        1.3065049513        2.3574449676
 C          4.7903712947        0.2715856927        2.4737163348
 C          3.5962960291        0.2901669955        1.7767145474
 C          3.3535799520        1.3726953298        0.9450145600
 C         -0.1844786537        1.3781691054        0.1494280633
 Cl        -0.4044152920        2.9613062101        0.8487131448
 C         -1.2562245792        0.5491623001       -0.0705875814
 N         -2.5767049464        0.9355298649        0.1196377524
 C         -3.4838952986        0.2043426300        0.8566948743
 C         -3.2723192248       -0.9390559662        1.6123792843
 C         -4.3625060907       -1.4895399684        2.2606443842
 C         -5.6221166304       -0.9003414978        2.1855757336
 C         -5.8254834655        0.2663916061        1.4703449673
 C         -4.7497014342        0.8300427582        0.8006408682
 C         -4.5826910522        2.0054009940       -0.0126497774
 C         -5.4490278655        3.0006788106       -0.4386036045
 C         -4.9590678130        3.9967580574       -1.2632753205
 C         -3.6316616614        3.9912161822       -1.6829319532
 C         -2.7503736399        3.0072426584       -1.2750542740
 C         -3.2260433423        2.0279425327       -0.4156657919
 H          3.2239645052       -1.5518402339       -0.4260714941
 H          5.2219973497       -2.9914060626       -0.4444682225
 H          5.0211248152       -5.4356242170       -0.3762198247
 H          2.7922983208       -6.5097184253       -0.2993547905
 H          0.1633374375       -7.0609206257       -0.2113500770
 H         -2.3092323903       -6.9792515688       -0.1010115021
 H         -3.4778364040       -4.8211601633       -0.0586044828
 H         -2.2456003031       -2.7089884755       -0.1340265137
 H          0.7543928072        3.0411250380       -1.7903305934
 H          1.5533687399        5.1796500862       -2.7209238048
 H          3.6793138908        6.1544462009       -1.9941844966
 H          5.1034244931        4.9905715265       -0.3417165607
 H          6.1844111919        3.1997269766        1.4578984512
 H          6.6354167356        1.2580477708        2.9198803425
 H          5.0076027697       -0.5615449768        3.1251225042
 H          2.8774352866       -0.5076051515        1.8700386308
 H         -2.2882855375       -1.3719023438        1.6999690686
 H         -4.2305529204       -2.3872386575        2.8460032467
 H         -6.4487298065       -1.3562973082        2.7092252327
 H         -6.7992439855        0.7304722398        1.4340948542
 H         -6.4849367257        2.9914552473       -0.1353093928
 H         -5.6160663080        4.7843189761       -1.6002902271
 H         -3.2831004434        4.7701205460       -2.3446078899
 H         -1.7305576535        3.0001237276       -1.6235430043
