  73
  -114.154373981100       0.212927505424641      !
 N          9.2158482500        1.1917863901        0.2216778645
 C          9.0362768676        0.0776621010        0.0155769998
 C          8.8762988510       -1.3004286362       -0.2588747229
 C         10.0225324459       -2.0838929232       -0.3981058076
 C          9.9099194266       -3.4224114637       -0.7176776252
 C          8.6553777967       -3.9824510667       -0.9096108653
 C          7.5171153761       -3.2087438411       -0.7753517402
 C          7.6018063523       -1.8609058386       -0.4403642397
 C          6.3881493740       -1.0492630234       -0.2811968318
 C          6.2309521163       -0.2075387248        0.8180397692
 C          5.0895180034        0.5526018255        0.9645699941
 C          4.0820740688        0.4990920534        0.0037703370
 N          2.9351773223        1.2853703440        0.1433216058
 C          2.9161633474        2.6381698691        0.4300696756
 C          3.9726844402        3.5257290371        0.5740707437
 C          3.6708970502        4.8494720536        0.8318920433
 C          2.3531963712        5.2891444234        0.9359086944
 C          1.2979697913        4.4151986802        0.7664756474
 C          1.5759415863        3.0800091424        0.5063482714
 C          0.7510117876        1.9302591697        0.2568824826
 C         -0.6208623357        1.7371308072        0.2198681699
 C         -1.1220709964        0.4649812224       -0.0250539918
 C         -2.5737565300        0.2332549930       -0.0700620999
 C         -3.4082025424        1.1551933768       -0.7174530781
 C         -4.7759689840        0.9883096894       -0.7830839650
 C         -5.3259275919       -0.1289079730       -0.1708324581
 C         -4.5007504562       -1.0824775732        0.4674773007
 C         -3.1278933172       -0.8964296536        0.5175293672
 C         -5.3718718231       -2.1198764970        0.9452304180
 C         -5.1589811195       -3.2952052884        1.6530308498
 C         -6.2483248708       -4.0784754267        1.9779801229
 C         -7.5386193644       -3.6949050638        1.6190091089
 C         -7.7758814005       -2.5300099338        0.9147826498
 C         -6.6826862361       -1.7506770105        0.5644641437
 N         -6.6405521940       -0.5450624966       -0.1074274967
 C         -7.7440974931        0.1427416328       -0.6306910564
 C         -8.6547329621       -0.5163792943       -1.4515465969
 C         -9.7445214631        0.1652909238       -1.9604301634
 C         -9.9301226387        1.5058693788       -1.6660438282
 C         -9.0217275087        2.1646303019       -0.8541173666
 C         -7.9344470051        1.4889388562       -0.3321880214
 C         -0.2332926265       -0.6011771355       -0.2176108290
 C          1.1358135934       -0.4309270444       -0.1890629309
 C          1.6297104905        0.8461144997        0.0341327937
 C          4.2309472384       -0.3442876670       -1.0950583971
 C          5.3672571315       -1.1153761201       -1.2273712030
 H         10.9922760124       -1.6289692882       -0.2576471671
 H         10.7972513060       -4.0282190867       -0.8210511953
 H          8.5656275610       -5.0284168766       -1.1626451765
 H          6.5422712879       -3.6537234792       -0.9110905926
 H          6.9967405929       -0.1682157536        1.5783402076
 H          4.9647264175        1.1821104414        1.8323030277
 H          4.9974259646        3.2007053491        0.4761889305
 H          4.4759959774        5.5591340506        0.9517550513
 H          2.1593543417        6.3313081507        1.1420531357
 H          0.2762242260        4.7582470717        0.8294047772
 H         -1.2908023331        2.5628111994        0.4066980424
 H         -2.9599523275        2.0110100495       -1.2004586942
 H         -5.3946495027        1.7001549034       -1.3088698455
 H         -2.5011496365       -1.6137967648        1.0255718008
 H         -4.1603862882       -3.5834843916        1.9453168583
 H         -6.1045919243       -4.9977177677        2.5262617426
 H         -8.3730444142       -4.3203125985        1.9006795469
 H         -8.7813117137       -2.2325753348        0.6571401001
 H         -8.4940079942       -1.5555588074       -1.6971492312
 H        -10.4475183426       -0.3509402490       -2.5974690233
 H        -10.7802621378        2.0357850890       -2.0683944124
 H         -9.1654045778        3.2086963072       -0.6180104679
 H         -7.2358029799        1.9930247425        0.3188185507
 H         -0.6352879066       -1.5847374327       -0.4112542758
 H          1.7979071688       -1.2725460424       -0.3274815216
 H          3.4618201406       -0.3738000727       -1.8521106840
 H          5.4837651805       -1.7512638405       -2.0930479203
  73
  -114.154127698400       0.164077138669523      !
 N          5.2481905691       -3.9249209826       -0.8257484139
 C          6.2581239454       -3.3837092253       -0.7713549745
 C          7.5313336684       -2.7689135253       -0.7365756350
 C          8.6524134623       -3.5559472993       -1.0023212741
 C          9.9077449170       -2.9817600168       -1.0332436494
 C         10.0491786112       -1.6203027785       -0.8079368899
 C          8.9401962992       -0.8361590597       -0.5473181295
 C          7.6656305974       -1.3916050734       -0.4983153668
 C          6.4882713603       -0.5593553234       -0.2191609802
 C          5.5227674397       -0.9695392648        0.6978528600
 C          4.4010851705       -0.2011550312        0.9293080345
 C          4.2116521925        0.9914533503        0.2345404915
 N          3.0447736395        1.7368883198        0.4225653293
 C          2.9656932216        3.0995669387        0.6336782344
 C          3.9817902500        4.0248333582        0.8233015688
 C          3.6230937645        5.3394092680        1.0539823410
 C          2.2872615924        5.7303518467        1.1053871178
 C          1.2713740907        4.8096166328        0.9415706889
 C          1.6066831967        3.4828871838        0.7083046218
 C          0.8329736129        2.2869210159        0.5169427174
 C         -0.5296084651        2.0368797555        0.4487800073
 C         -0.9683685645        0.7392134461        0.2241011094
 C         -2.4036182098        0.4298352237        0.1296961505
 C         -3.2499223701        1.2528961626       -0.6248656173
 C         -4.5912603448        0.9724737112       -0.7865365741
 C         -5.0978661659       -0.1633915308       -0.1711164367
 C         -4.2711331441       -0.9790512540        0.6343655937
 C         -2.9232227170       -0.6862433061        0.7715147573
 C         -5.1128069522       -2.0160924067        1.1626391684
 C         -4.8795309802       -3.1028495295        1.9945532202
 C         -5.9323568888       -3.9434651359        2.2954634251
 C         -7.2006056707       -3.7204215980        1.7640014200
 C         -7.4572107913       -2.6459203776        0.9339126301
 C         -6.4094300351       -1.7821075123        0.6493458552
 N         -6.3861720893       -0.6596793528       -0.1554244781
 C         -7.4693314641       -0.1475979552       -0.8822492362
 C         -8.6868499394        0.0946004266       -0.2528158618
 C         -9.7541470730        0.5871301810       -0.9808967630
 C         -9.6154924680        0.8524643888       -2.3331660168
 C         -8.4023652498        0.6188402702       -2.9595181782
 C         -7.3328169910        0.1162002339       -2.2425215383
 C         -0.0326466012       -0.2901472926        0.0548856714
 C          1.3268470079       -0.0623240777        0.1050027094
 C          1.7586967045        1.2324046234        0.3532493145
 C          5.1855519265        1.4193685619       -0.6650995049
 C          6.3138738102        0.6553343911       -0.8794054302
 H          8.5229666292       -4.6123414672       -1.1875923577
 H         10.7744906031       -3.5920929787       -1.2364841443
 H         11.0299833873       -1.1692871514       -0.8353949060
 H          9.0579552116        0.2209505374       -0.3591682473
 H          5.6613229114       -1.8875199791        1.2493865683
 H          3.6679742263       -0.5164072842        1.6557892075
 H          5.0200015204        3.7287158200        0.8049318440
 H          4.3961479236        6.0791611303        1.2019741976
 H          2.0478448419        6.7677074049        1.2863770647
 H          0.2358013483        5.1092594563        0.9993201975
 H         -1.2389969355        2.8400245065        0.5811539392
 H         -2.8307095745        2.1211473797       -1.1119143045
 H         -5.2248954968        1.6222914756       -1.3715734028
 H         -2.2894282182       -1.3077534037        1.3861125373
 H         -3.8923791141       -3.2838488745        2.3924412443
 H         -5.7735451935       -4.7927505032        2.9433193876
 H         -8.0011672994       -4.4050979534        2.0029183693
 H         -8.4394468243       -2.4937702625        0.5123803978
 H         -8.7847268197       -0.0914775924        0.8063022161
 H        -10.6969323484        0.7724145283       -0.4875792079
 H        -10.4503821257        1.2397287844       -2.8975203851
 H         -8.2903839496        0.8205493143       -4.0146774120
 H         -6.3915968532       -0.0871079244       -2.7312635724
 H         -0.3911036441       -1.2880976841       -0.1497498006
 H          2.0260571359       -0.8672215793       -0.0634889755
 H          5.0379430251        2.3377695706       -1.2131404292
 H          7.0509471019        0.9810983434       -1.5990329163
  73
  -114.153989505900       0.141755264939220      !
 N          7.7206311014       -0.2137691542       -3.3232506325
 C          7.9870166770       -0.8777087956       -2.4266398326
 C          8.3840108234       -1.6982827540       -1.3452677784
 C          9.5402837875       -2.4655259230       -1.4928538908
 C          9.9917547572       -3.2439729930       -0.4456814075
 C          9.2973977784       -3.2537080469        0.7551125924
 C          8.1530956566       -2.4920653916        0.9064587135
 C          7.6698751370       -1.7079676583       -0.1366010710
 C          6.4463178518       -0.9116034432        0.0298607819
 C          6.2622260580       -0.1390167941        1.1748201440
 C          5.1189821955        0.6151088527        1.3415158436
 C          4.1290010869        0.6103486483        0.3615390998
 N          2.9709181028        1.3771648247        0.5229300203
 C          2.9258149718        2.7177469272        0.8564817119
 C          3.9649172339        3.6105872674        1.0745019924
 C          3.6386805478        4.9202806117        1.3711663072
 C          2.3130927874        5.3420871642        1.4420555286
 C          1.2755234293        4.4642615024        1.1995408287
 C          1.5783532675        3.1430447045        0.8994601061
 C          0.7763787395        1.9954926493        0.5764028758
 C         -0.5908037971        1.7905320386        0.4740172117
 C         -1.0655022835        0.5223561989        0.1660280293
 C         -2.5105150617        0.2764787313        0.0429647507
 C         -3.3171442736        1.1909909255       -0.6479811514
 C         -4.6758057341        1.0043251427       -0.7979860225
 C         -5.2458170129       -0.1229485417       -0.2236357001
 C         -4.4475850486       -1.0653775772        0.4638590347
 C         -3.0824110632       -0.8624142963        0.5938892115
 C         -5.3315160646       -2.1140549502        0.8903513919
 C         -5.1459311906       -3.2833119567        1.6156194520
 C         -6.2425368820       -4.0792498020        1.8794385886
 C         -7.5138573372       -3.7145460842        1.4416937697
 C         -7.7236530598       -2.5562068720        0.7182782253
 C         -6.6217685090       -1.7636785285        0.4301448636
 N         -6.5558595273       -0.5583710420       -0.2405909657
 C         -7.6334574819        0.1054461149       -0.8426085042
 C         -8.4773451541       -0.5780495913       -1.7134589477
 C         -9.5422061282        0.0790850314       -2.3010575537
 C         -9.7684196054        1.4195754557       -2.0363785526
 C         -8.9262076920        2.1026563182       -1.1748534151
 C         -7.8651130172        1.4514159052       -0.5739018645
 C         -0.1582763790       -0.5289934065       -0.0213650725
 C          1.2064123924       -0.3455359596        0.0665354929
 C          1.6752618622        0.9291548325        0.3494715439
 C          4.3027496726       -0.1675277622       -0.7807048823
 C          5.4478790725       -0.9199157065       -0.9416665097
 H         10.0737605357       -2.4389048490       -2.4318206286
 H         10.8831127664       -3.8411849449       -0.5634243579
 H          9.6481424334       -3.8625468864        1.5751913061
 H          7.6087475678       -2.5151694853        1.8391531747
 H          7.0313938249       -0.1184373539        1.9333031325
 H          4.9795717420        1.2017705445        2.2371204124
 H          4.9962797443        3.3001169920        1.0011070151
 H          4.4301898136        5.6336567603        1.5477215689
 H          2.0995629063        6.3735303019        1.6800863425
 H          0.2482266434        4.7940929373        1.2368747122
 H         -1.2784001369        2.6025902062        0.6568121668
 H         -2.8520845825        2.0555969311       -1.0984435601
 H         -5.2709353314        1.7091414700       -1.3591336180
 H         -2.4755942555       -1.5745134555        1.1327361922
 H         -4.1629449045       -3.5566287854        1.9688704243
 H         -6.1200927741       -4.9936191280        2.4408781661
 H         -8.3555644402       -4.3493377982        1.6768434257
 H         -8.7157376112       -2.2732930409        0.3997440662
 H         -8.2842048375       -1.6170568878       -1.9352299254
 H        -10.1935209841       -0.4564117911       -2.9759656439
 H        -10.5986270714        1.9304125409       -2.5002652994
 H         -9.1014278316        3.1469743221       -0.9623332593
 H         -7.2199103471        1.9746334637        0.1159210424
 H         -0.5419474121       -1.5096921775       -0.2612220583
 H          1.8839112050       -1.1744033879       -0.0742549317
 H          3.5442515349       -0.1640349151       -1.5484437310
 H          5.5641492097       -1.5270551801       -1.8270325870
  73
  -114.153897400900       0.128591028747450      !
 N          7.8241927640       -2.5824297579        1.7968609162
 C          8.0870025723       -2.3369068341        0.7074646069
 C          8.4723573881       -2.0690562184       -0.6266940756
 C          9.6460289955       -2.6552990261       -1.1025124223
 C         10.0875182824       -2.3796106784       -2.3812838686
 C          9.3643270109       -1.5136008154       -3.1883426921
 C          8.2022394977       -0.9286342314       -2.7196383754
 C          7.7299433974       -1.1966514880       -1.4383528972
 C          6.4908227894       -0.5740027590       -0.9526826428
 C          5.5140500107       -1.3255619520       -0.3030530772
 C          4.3564856015       -0.7306452903        0.1556635407
 C          4.1486257715        0.6340699419       -0.0289680624
 N          2.9811806613        1.2434324609        0.4408832692
 C          2.9217134048        2.3987222650        1.1976387641
 C          3.9517231304        3.1745194970        1.7092381572
 C          3.6121834561        4.2793294114        2.4668130706
 C          2.2824035204        4.6059920322        2.7220589592
 C          1.2539809606        3.8216492943        2.2391536498
 C          1.5703354863        2.7062818115        1.4753132931
 C          0.7807450682        1.6826867698        0.8481928371
 C         -0.5843114326        1.4604229134        0.7554455289
 C         -1.0467300541        0.3709699052        0.0289314061
 C         -2.4898968984        0.1107509565       -0.0859584734
 C         -3.0394556120       -0.2607699239       -1.3207463959
 C         -4.3855014774       -0.5191190117       -1.4769728202
 C         -5.2020459995       -0.4187407693       -0.3595102950
 C         -4.6725068008       -0.0211155641        0.8893905404
 C         -3.3177750101        0.2423808654        1.0211723351
 C         -5.7789169337        0.0251378644        1.8044879698
 C         -5.8884147600        0.3230034571        3.1562885384
 C         -7.1315039368        0.2474274767        3.7519077358
 C         -8.2539768393       -0.1340479620        3.0202429348
 C         -8.1704000413       -0.4349928548        1.6741723943
 C         -6.9279201054       -0.3374827259        1.0643189133
 N         -6.5651376151       -0.6030398909       -0.2416561588
 C         -7.4294504021       -0.9977358270       -1.2716618877
 C         -7.1239599739       -2.1088357915       -2.0528151800
 C         -7.9749531160       -2.4907331391       -3.0731987163
 C         -9.1384194230       -1.7794713383       -3.3163588577
 C         -9.4469991646       -0.6773596990       -2.5362588737
 C         -8.5965416580       -0.2808667066       -1.5208372642
 C         -0.1284679245       -0.4773517940       -0.6041443981
 C          1.2344440834       -0.2793518644       -0.5188618466
 C          1.6906207710        0.7992765879        0.2247395143
 C          5.1161242956        1.3888252053       -0.6889399334
 C          6.2715887602        0.7887580389       -1.1446959972
 H         10.2036225328       -3.3175756951       -0.4561631444
 H         10.9943545699       -2.8355726172       -2.7484117717
 H          9.7083193721       -1.2957066977       -4.1884969353
 H          7.6362964879       -0.2657884643       -3.3576881854
 H          5.6568519405       -2.3867584299       -0.1632370644
 H          3.6154511675       -1.3174237415        0.6765412220
 H          4.9861685193        2.9189494726        1.5355529475
 H          4.3964134690        4.9013614056        2.8725112097
 H          2.0582262725        5.4803268490        3.3149592333
 H          0.2235683324        4.0637502843        2.4516277627
 H         -1.2799245775        2.1428599659        1.2201362654
 H         -2.3902586512       -0.3204154850       -2.1819057966
 H         -4.7893393523       -0.7765248460       -2.4447074689
 H         -2.9084787496        0.5241905146        1.9794031371
 H         -5.0150235985        0.6008381311        3.7267558194
 H         -7.2395288488        0.4788977978        4.8014502962
 H         -9.2110829701       -0.1986277682        3.5166991667
 H         -9.0432211850       -0.7468974513        1.1205558619
 H         -6.2280068733       -2.6747327031       -1.8449536494
 H         -7.7319539657       -3.3527987183       -3.6766384083
 H         -9.8017572066       -2.0819639491       -4.1126847302
 H        -10.3505904776       -0.1164421595       -2.7258160609
 H         -8.8218827840        0.5920280598       -0.9263484361
 H         -0.5015260552       -1.3231900133       -1.1626261551
 H          1.9198606971       -0.9421328724       -1.0255316628
 H          4.9495951289        2.4431227413       -0.8516592239
 H          7.0238647951        1.3852144722       -1.6404054835
  73
  -114.153883217800       0.126675483120852      !
 N          7.8971634267       -1.6020121276        2.6663446283
 C          8.0712188978       -1.8350015830        1.5570089090
 C          8.3513845769       -2.1370279708        0.2041437014
 C          9.4593580512       -2.9385170449       -0.0747970542
 C          9.7971259629       -3.2208358084       -1.3832961059
 C          9.0370437786       -2.6981624886       -2.4192151407
 C          7.9404617648       -1.9011071048       -2.1470472900
 C          7.5709890803       -1.6105026083       -0.8370501143
 C          6.3903967725       -0.7789788834       -0.5658463945
 C          5.4460463364       -1.1596342768        0.3848700118
 C          4.3260296822       -0.3866855314        0.6136508721
 C          4.1230159497        0.7859396974       -0.1097003976
 N          2.9731991604        1.5547524487        0.0953101979
 C          2.9299505476        2.9241920460        0.2743879630
 C          3.9715479470        3.8308898542        0.4066991913
 C          3.6484845009        5.1584361735        0.6138915855
 C          2.3235987663        5.5803855263        0.6973828868
 C          1.2834565653        4.6787037605        0.5914307092
 C          1.5829310884        3.3391205629        0.3832071533
 C          0.7783818807        2.1558884072        0.2506973520
 C         -0.5904476703        1.9341231435        0.2380911132
 C         -1.0651366392        0.6408777399        0.0672051512
 C         -2.5096023026        0.3627397655        0.0380465305
 C         -3.3663259063        1.1842256554       -0.7064458642
 C         -4.7199819245        0.9348941886       -0.8026931239
 C         -5.2286903372       -0.1670674010       -0.1300569787
 C         -4.3890898612       -0.9798191541        0.6650727696
 C         -3.0293748893       -0.7191062072        0.7358146460
 C         -5.2339869306       -1.9755789867        1.2630831447
 C         -4.9940428595       -3.0405712662        2.1209499755
 C         -6.0552006968       -3.8396295672        2.4964567634
 C         -7.3392651111       -3.5977426866        2.0133808272
 C         -7.6028829412       -2.5444141482        1.1587589278
 C         -6.5454304420       -1.7211086780        0.7994933913
 N         -6.5277315852       -0.6261298061       -0.0421655906
 C         -7.6299918893       -0.1022373035       -0.7311288865
 C         -8.8072462957        0.1950155081       -0.0508319823
 C         -9.8945772353        0.6983546074       -0.7406347174
 C         -9.8155654800        0.9196660403       -2.1054548059
 C         -8.6421408897        0.6318519394       -2.7825844917
 C         -7.5532728648        0.1181487679       -2.1036087568
 C         -0.1582155776       -0.4131318269       -0.1054731901
 C          1.2067346471       -0.2134585969       -0.1106112961
 C          1.6761217161        1.0772739825        0.0847704183
 C          5.0675671589        1.1760631377       -1.0565510876
 C          6.1856443867        0.4000134245       -1.2801457839
 H         10.0464372499       -3.3288163460        0.7437069249
 H         10.6517867244       -3.8444631558       -1.5970043499
 H          9.2995407400       -2.9167771078       -3.4436189164
 H          7.3426933717       -1.5106387297       -2.9575636469
 H          5.5817801034       -2.0753040736        0.9408292006
 H          3.6084551014       -0.6812858553        1.3638979735
 H          5.0018875554        3.5110386236        0.3647533891
 H          4.4416127710        5.8840847085        0.7183971332
 H          2.1125311780        6.6271721933        0.8581512532
 H          0.2569201628        5.0024987300        0.6745172681
 H         -1.2773169434        2.7558984043        0.3743324409
 H         -2.9464039499        2.0255551782       -1.2380221193
 H         -5.3615660921        1.5835990559       -1.3801794817
 H         -2.3855848796       -1.3389206058        1.3418081757
 H         -3.9956974052       -3.2365258676        2.4822444498
 H         -5.8913772611       -4.6703186497        3.1667868366
 H         -8.1470650341       -4.2499299067        2.3113690615
 H         -8.5985382261       -2.3770551864        0.7762576677
 H         -8.8579065798        0.0422156757        1.0168361233
 H        -10.8059786644        0.9262856426       -0.2078959394
 H        -10.6657633624        1.3157580364       -2.6399265743
 H         -8.5769429229        0.7995018590       -3.8475402870
 H         -6.6442967138       -0.1290914911       -2.6315341859
 H         -0.5454862639       -1.4084472196       -0.2670862625
 H          1.8829806933       -1.0379958902       -0.2789394488
 H          4.9088621971        2.0791002248       -1.6267071033
 H          6.9176377326        0.7153242652       -2.0095267050
  73
  -114.153816131200       0.117994483239524      !
 N          7.5890437467       -2.6674113914        1.8509564471
 C          7.9186320325       -2.4292847598        0.7787056030
 C          8.3952255594       -2.1488653223       -0.5229588449
 C          9.5734932664       -2.7721806888       -0.9365646524
 C         10.1015016854       -2.4961364036       -2.1819711686
 C          9.4619887044       -1.5907887243       -3.0161603270
 C          8.2968037410       -0.9677098589       -2.6081855394
 C          7.7373833230       -1.2360299662       -1.3625153096
 C          6.4939600104       -0.5761560383       -0.9412638038
 C          5.4571309997       -1.3048793325       -0.3624393833
 C          4.2980259876       -0.6780019204        0.0448322843
 C          4.1468067684        0.6968366307       -0.1221490630
 N          2.9800110969        1.3334355023        0.3115076657
 C          2.9232581694        2.4517953691        1.1230376379
 C          3.9535173780        3.2011438431        1.6720744226
 C          3.6149570491        4.2698362403        2.4802797533
 C          2.2856981668        4.5868743153        2.7493156145
 C          1.2566954442        3.8280483773        2.2285698915
 C          1.5722511803        2.7495536321        1.4133766218
 C          0.7804696333        1.7555791785        0.7431447822
 C         -0.5840982828        1.5276426077        0.6578862754
 C         -1.0475795717        0.4688902559       -0.1116792796
 C         -2.4893316615        0.1868525821       -0.1930455677
 C         -3.0896138484       -0.0863058790       -1.4289755176
 C         -4.4373288526       -0.3598842065       -1.5446486992
 C         -5.2000926791       -0.3828380042       -0.3855949498
 C         -4.6155938027       -0.0953041260        0.8690256559
 C         -3.2630203402        0.1935348480        0.9597800868
 C         -5.6719153968       -0.1732440840        1.8389988136
 C         -5.7133510980       -0.0246147522        3.2188094196
 C         -6.9189607411       -0.2028584400        3.8671435632
 C         -8.0701955210       -0.5386301448        3.1581331829
 C         -8.0537793730       -0.6918960509        1.7849856392
 C         -6.8496823701       -0.4921766399        1.1250188092
 N         -6.5512450375       -0.6139560858       -0.2181134320
 C         -7.4672956142       -0.9075496910       -1.2371234352
 C         -7.1961111975       -1.9192778369       -2.1539267483
 C         -8.1008319813       -2.1990832445       -3.1611619005
 C         -9.2833429744       -1.4845221492       -3.2573917136
 C         -9.5579250561       -0.4820638676       -2.3419925186
 C         -8.6544938975       -0.1874538929       -1.3380063632
 C         -0.1339750145       -0.3355969578       -0.8047239276
 C          1.2290621346       -0.1353026767       -0.7223177735
 C          1.6879966538        0.9031755496        0.0750927647
 C          5.1719194718        1.4282329976       -0.7175462157
 C          6.3301437815        0.7958339818       -1.1211865758
 H         10.0628921617       -3.4677071793       -0.2703318616
 H         11.0092445523       -2.9841160614       -2.5027845765
 H          9.8726174187       -1.3739660272       -3.9910705041
 H          7.7967847305       -0.2732836944       -3.2674190769
 H          5.5565378583       -2.3724459913       -0.2344001135
 H          3.5108980888       -1.2471760193        0.5150705505
 H          4.9880249011        2.9520811851        1.4903529677
 H          4.3998980917        4.8698347729        2.9166521650
 H          2.0624605950        5.4325050024        3.3826935782
 H          0.2263298591        4.0615688730        2.4505334370
 H         -1.2794119310        2.1787781467        1.1660239673
 H         -2.4798306693       -0.0584725920       -2.3202831261
 H         -4.8822737007       -0.5383420689       -2.5121377105
 H         -2.8127283289        0.4041953552        1.9182094861
 H         -4.8167875126        0.2181858952        3.7690659988
 H         -6.9732579766       -0.0929532511        4.9400526060
 H         -8.9957305395       -0.6885119379        3.6944030567
 H         -8.9475882931       -0.9714988343        1.2477119774
 H         -6.2848059969       -2.4909056851       -2.0610629758
 H         -7.8851028758       -2.9854627066       -3.8693886238
 H         -9.9883502795       -1.7073788943       -4.0439801887
 H        -10.4750677037        0.0832879197       -2.4178503172
 H         -8.8515509267        0.6134576632       -0.6410208281
 H         -0.5105104321       -1.1522569324       -1.4031361117
 H          1.9126942393       -0.7676615429       -1.2688855623
 H          5.0507553681        2.4901111651       -0.8704038763
 H          7.1287678717        1.3749059834       -1.5619465370
  73
  -114.153732309000       0.107979095858791      !
 N          7.9360142741       -1.6124841689        2.6614608219
 C          8.0880321515       -1.8525762697        1.5502216709
 C          8.3429240833       -2.1615996819        0.1939777877
 C          9.4340308410       -2.9810323637       -0.0990524328
 C          9.7474927005       -3.2730745919       -1.4114506991
 C          8.9799459721       -2.7421372347       -2.4376844993
 C          7.8998255432       -1.9278462779       -2.1516689001
 C          7.5547535736       -1.6268084911       -0.8371040585
 C          6.3874710926       -0.7807848907       -0.5537780327
 C          5.4536039885       -1.1446060131        0.4137300880
 C          4.3391119015       -0.3644671142        0.6453509200
 C          4.1299804078        0.7976147605       -0.0931419468
 N          2.9786298528        1.5656519668        0.1058080809
 C          2.9277440836        2.9389537485        0.2491709971
 C          3.9644529056        3.8538063607        0.3628366030
 C          3.6342411626        5.1847027379        0.5341607394
 C          2.3069775430        5.6021785820        0.6007105818
 C          1.2716205129        4.6929882869        0.5137287604
 C          1.5782711118        3.3499025284        0.3417115441
 C          0.7800461312        2.1597486518        0.2354202215
 C         -0.5875798955        1.9308896880        0.2199746514
 C         -1.0553117685        0.6314870095        0.0788596070
 C         -2.4990091884        0.3498592048        0.0442584716
 C         -3.3451099693        1.1423224158       -0.7425701229
 C         -4.6999266298        0.8986955867       -0.8363601719
 C         -5.2247576891       -0.1554223049       -0.1022645838
 C         -4.3873233799       -0.9686936236        0.6950211921
 C         -3.0258828103       -0.7156201157        0.7612969405
 C         -5.2320171054       -1.9701744964        1.2837236592
 C         -5.0006776012       -3.0158483884        2.1673955756
 C         -6.0687441565       -3.7952243339        2.5642434137
 C         -7.3566325600       -3.5344779081        2.1012531218
 C         -7.6116839310       -2.5004760994        1.2209267214
 C         -6.5387045254       -1.7270924056        0.8015864797
 N         -6.5202967984       -0.6285629004       -0.0350897477
 C         -7.6203429367       -0.1078832795       -0.7300963883
 C         -8.4327908841       -0.9512733621       -1.4829666407
 C         -9.5165103405       -0.4355422778       -2.1687548355
 C         -9.7930753554        0.9207290997       -2.1200552678
 C         -8.9834654189        1.7617979658       -1.3749033079
 C         -7.9039484439        1.2537151011       -0.6764568890
 C         -0.1427264205       -0.4222541885       -0.0610062296
 C          1.2212569955       -0.2158708629       -0.0636614223
 C          1.6836138683        1.0816344278        0.1012014032
 C          5.0674199816        1.1744501426       -1.0523986540
 C          6.1808344165        0.3922159178       -1.2775445091
 H         10.0288964728       -3.3758448149        0.7121043129
 H         10.5895739910       -3.9099139932       -1.6358326592
 H          9.2226578903       -2.9689943325       -3.4652612515
 H          7.2946176061       -1.5326748903       -2.9545589159
 H          5.5924685406       -2.0532942238        0.9803191107
 H          3.6296501827       -0.6462460269        1.4081084610
 H          4.9964328124        3.5378490715        0.3335210253
 H          4.4233942946        5.9167526339        0.6229736516
 H          2.0901777290        6.6518418178        0.7326575152
 H          0.2432386943        5.0140645820        0.5835988906
 H         -1.2794937192        2.7525670695        0.3289984053
 H         -2.9140011900        1.9503775255       -1.3153329055
 H         -5.3254559174        1.5019120467       -1.4770744359
 H         -2.3860720219       -1.3308485037        1.3761258254
 H         -4.0053042241       -3.2064462655        2.5397060837
 H         -5.9107821645       -4.6130630967        3.2515670737
 H         -8.1752041593       -4.1512398700        2.4419407566
 H         -8.6160267803       -2.2953814336        0.8816776519
 H         -8.2001837745       -2.0043968363       -1.5373710304
 H        -10.1412546107       -1.0944237776       -2.7538546825
 H        -10.6352602189        1.3213156427       -2.6641975116
 H         -9.1975734362        2.8195185830       -1.3315702133
 H         -7.2854689862        1.9027493077       -0.0745619270
 H         -0.5241285910       -1.4232121098       -0.1998692016
 H          1.9020913238       -1.0412098856       -0.2075306539
 H          4.9046649815        2.0696886135       -1.6336170435
 H          6.9038142924        0.6938717332       -2.0215468104
