88
 energy: -136.957357944360 gnorm: 0.000098718494 xtb: 6.7.1 (edcfbbe)
C           12.06780217056043       -3.41934243800336       -0.41258492885982
C           11.67696429772873       -2.24489607696880       -1.03540836537964
C           10.35105273498783       -1.85449464049908       -1.01538296404563
C            9.38888062234979       -2.63858241633104       -0.37940138564027
C            7.97907738136729       -2.22548757285480       -0.35940445735684
C            6.96559954418068       -3.17079507481262       -0.55735272781506
C            5.62756406786113       -2.82357313140338       -0.54394846755273
C            5.29542986323547       -1.49855300022552       -0.31565286941012
C            6.31696128651426       -0.51188871584005       -0.10836055553804
C            7.64467636646640       -0.88734391737975       -0.13893775779766
C            5.65409744873016        0.76674643755605        0.10912020744486
C            5.88854334796978        2.11325813229474        0.36414580052998
C            4.78803440544736        2.97767792448218        0.50458855276322
C            5.05511356612848        4.40039859749443        0.78424112051171
C            6.03641378154392        5.09306275086929        0.07743095302972
C            6.28642931233773        6.42696125429081        0.34212491083105
C            5.56559515756825        7.09025637908493        1.32177863749387
C            4.58949448764834        6.41111736819352        2.03263769643942
C            4.33345141231183        5.07903375525384        1.76455267734647
C            3.44469646918387        2.56307633967454        0.40150240836136
C            3.17705342233817        1.22617250740096        0.14137345190056
C            2.09262660381036        0.27075415099436       -0.06339435036856
C            0.72481032019700        0.40254074286417       -0.06418381903958
C           -0.09327794726673       -0.72315993333515       -0.28328441990309
C           -1.53479912722755       -0.60006028649000       -0.27067272248455
C           -2.36633973850678       -1.67407997518561        0.11018055600770
C           -3.72626356943790       -1.55019580247530        0.13671417839840
C           -4.37097973387240       -0.34467595206581       -0.23124021221405
C           -5.79636912834049       -0.26939862791401       -0.19066110985521
C           -6.54446921697596        0.87188769423311       -0.54284527723271
C           -7.92306030985193        0.81412801298238       -0.45454396242698
C           -8.79986663125640        1.93273101018736       -0.76844016012079
C           -8.36718452452909        3.06007646994849       -1.47603690790234
C           -9.23626565840016        4.09852811402377       -1.74377832512011
C          -10.55501237485220        4.04263274640057       -1.31750371255240
C          -11.00011047867279        2.92740191453223       -0.62284193126164
C          -10.13745532037063        1.88637634759650       -0.35269324291866
N           -8.52133203950581       -0.33031737708409       -0.02780869147550
C           -7.78605974645904       -1.38608750632255        0.28495621107824
C           -8.46629175410254       -2.60505385804923        0.72802813634518
C           -9.85737531152487       -2.64800647407712        0.79276834575966
C          -10.50016873019866       -3.79786140416878        1.21009988155516
C           -9.76250846437535       -4.91620685039844        1.56647467009680
C           -8.37782833401465       -4.88131330133032        1.50297599287186
C           -7.73156781534822       -3.73322534016738        1.08684166117923
N           -6.47734464954816       -1.37858447072953        0.21379398162096
C           -3.53830758059773        0.72709392105403       -0.62468761774808
C           -2.17575130590020        0.60216546306885       -0.63341493762024
C            0.52466644403969       -1.97182583944023       -0.50853900563354
C            1.89304962460326       -2.13004997285414       -0.51655227193591
C            2.69050402259468       -1.01651268395056       -0.29112698252966
N            4.06315178603871       -0.87795184757553       -0.23459044851966
C            4.31053332405627        0.43917161057202        0.01618944426558
C            9.79352411527123       -3.82067620164952        0.24008002969152
C           11.12152120932612       -4.20422849177845        0.22660493257714
H           13.10483055355209       -3.72148828606516       -0.42533992753524
H           12.40980117744459       -1.63151594880002       -1.53983751495127
H           10.05116868451825       -0.94620890191342       -1.51777443361712
H            7.23953248983723       -4.19753213944461       -0.74778510041097
H            4.86416760977107       -3.56825100203684       -0.70766765786724
H            8.41947445042232       -0.15548115703698        0.03253880368267
H            6.88650990044903        2.50760599322308        0.47881388023789
H            6.59028184503621        4.58617445846662       -0.69970752786329
H            7.04574665966765        6.95254309918818       -0.21911597048948
H            5.76339983908695        8.13157214978511        1.53031578032352
H            4.02700924442674        6.92156984788826        2.80133605148750
H            3.58323544292367        4.55024242384521        2.33490234875215
H            2.65786047268552        3.29403139831446        0.50715482629958
H            0.28043955424806        1.36466701538928        0.13771658347869
H           -1.91929039128024       -2.60359772954538        0.43072291393933
H           -4.34711190022159       -2.37572814746623        0.45018188291162
H           -6.04861772188149        1.77488674097505       -0.85431583155454
H           -7.35141109247614        3.12086049761933       -1.83664710421296
H           -8.88424619910223        4.95972592982875       -2.29390029137216
H          -11.22988884822354        4.85854096660375       -1.52971446469241
H          -12.02715715416982        2.87208376334326       -0.29097829185702
H          -10.47524080172808        1.01820829509869        0.19250101316894
H          -10.41685323212779       -1.76996471616260        0.50774590182625
H          -11.57903761633204       -3.82377654106749        1.25781835629062
H          -10.26603931858108       -5.81470153198614        1.89195309581011
H           -7.80223425892702       -5.75258238193246        1.77966950690156
H           -6.65440987972657       -3.69046874523129        1.03276357273342
H           -3.97453139464346        1.66584467186609       -0.93105653761847
H           -1.57984071392645        1.43855555960100       -0.96856556669860
H           -0.09642385500530       -2.83026577016754       -0.71100073564038
H            2.33198407376526       -3.09856086264932       -0.70080744377954
H            9.06435438573646       -4.42869896091609        0.75560644058636
H           11.42122993905279       -5.11846136527329        0.71866945069163
