88
 energy: -137.039417288163 gnorm: 0.000066023500 xtb: 6.7.1 (edcfbbe)
C           12.08173442713143       -3.30312273093432       -0.85894751612145
C           11.66512222818055       -2.08713774037063       -1.37526352452578
C           10.33571706415155       -1.71532084954918       -1.29404074620426
C            9.39786811219721       -2.55683650555794       -0.69920372715125
C            7.98240954784606       -2.16179040031273       -0.61413644832626
C            6.97681325826008       -3.09258745129803       -0.89083986499522
C            5.63450165892926       -2.76320725044703       -0.82524057116665
C            5.29396325833056       -1.47253309283033       -0.46593317634917
C            6.30582045977222       -0.50220332777252       -0.17568763259700
C            7.63915668736301       -0.85935975832771       -0.25791086992908
C            5.63589530197639        0.74299390412981        0.16880702094552
C            5.86250466824898        2.05956482982352        0.55104681542378
C            4.75810663519853        2.89966748752161        0.78221327129429
C            5.02016930372497        4.29193884482762        1.19650137106930
C            5.99661834187810        5.05349055464295        0.55810225521607
C            6.24510839970971        6.35588451570885        0.95112225113005
C            5.52505898388866        6.91956505112542        1.99146810556593
C            4.55133784815671        6.17242232895996        2.63346655388620
C            4.29939724438724        4.87124567788643        2.23863588073647
C            3.41993387146154        2.48866881079682        0.64714252199974
C            3.15579623244526        1.17921997371939        0.26352277452194
C            2.07869189295491        0.24265513044562       -0.01831058947498
C            0.70166358422811        0.36291822547363       -0.00000466525607
C           -0.08979435279446       -0.74182231498839       -0.30872476640924
C           -1.55521347039060       -0.63086800514952       -0.28519628752512
C           -2.34140671831977       -1.64567641571959        0.26085440732280
C           -3.71543239378484       -1.53709543476527        0.28539059080026
C           -4.35209752960959       -0.41754981089339       -0.25081822493376
C           -5.81666241061233       -0.34297277345224       -0.22245637535147
C           -6.55188419868729        0.40373974561942       -1.14368361097479
C           -7.94028352696793        0.38616508716450       -1.02046715425490
C           -8.82574715413916        1.13313602061486       -1.92439259409089
C           -8.46251116285947        1.41530753996226       -3.23968372372764
C           -9.32131516570250        2.11957787931882       -4.06380258361506
C          -10.54767038384692        2.55383533793019       -3.58716925485728
C          -10.91917435228437        2.27213569806507       -2.28190653826355
C          -10.06681599206128        1.56343921947303       -1.45711114217059
N           -8.53091345711184       -0.30889347295569       -0.04910855483776
C           -7.75746188519253       -0.99985149813365        0.78143433249775
C           -8.42051803790078       -1.76582359331946        1.84231870164311
C           -9.80579742993920       -1.91876742197463        1.83754928490980
C          -10.42879231691799       -2.63646394462765        2.84088671047974
C           -9.67822001371413       -3.20720678524997        3.85727877819459
C           -8.29977403891715       -3.05927144039259        3.86717000399642
C           -7.67129778188391       -2.34397620229335        2.86548469875592
N           -6.43129165146275       -1.04823967454610        0.72722865540816
C           -3.56918819335810        0.60048447198294       -0.79293386886244
C           -2.19320776335773        0.49540598563787       -0.80392648206013
C            0.51532309192015       -1.95832896927503       -0.64040899927544
C            1.88997906067509       -2.10630255643571       -0.67843099520857
C            2.67583741303287       -1.01205801845165       -0.36625226896490
N            4.05299733157799       -0.87212118231047       -0.31358420482502
C            4.29352320891738        0.41458047146997        0.05592760068164
C            9.82798451919604       -3.77858423071651       -0.18567223436967
C           11.15873208774928       -4.14650432682345       -0.26264852600577
H           13.12088541796016       -3.59199865853495       -0.92075073209715
H           12.37979938781895       -1.42652789042253       -1.84533831837539
H           10.01453453981496       -0.77224760010607       -1.71271662295896
H            7.25767139467979       -4.09325458203616       -1.18448216513559
H            4.87673968624367       -3.49770953630827       -1.05085589891079
H            8.40873790232456       -0.13829993491285       -0.02583673831879
H            6.85926385627119        2.44762390705850        0.69708451421070
H            6.55137040130234        4.62599365455711       -0.26496582043941
H            7.00300262725630        6.93478556207683        0.44254338895551
H            5.72141807390340        7.93609744529295        2.30013925468650
H            3.98777914206417        6.60461447818144        3.44823215249973
H            3.55036021542862        4.28876090320707        2.75603451554866
H            2.62886184854683        3.20111054623723        0.82645659035826
H            0.24368133021682        1.30062518901569        0.27700023412028
H           -1.86647222270102       -2.51640283004230        0.68861567935866
H           -4.32386402256041       -2.31931682644784        0.71323772232326
H           -6.06716012215208        0.97116638149388       -1.91980017940956
H           -7.51877455089303        1.06304115850411       -3.62982086697920
H           -9.03297238832601        2.32825642312089       -5.08382720744974
H          -11.21368726862694        3.10667566283967       -4.23317190857988
H          -11.87590042158567        2.60538276807402       -1.90712166197044
H          -10.34136641418059        1.33585997294968       -0.43833399858331
H          -10.37471532874438       -1.47097465084433        1.03729239768205
H          -11.50277717604494       -2.75318012465353        2.83112725421283
H          -10.16717649728910       -3.76697333661702        4.64129132050461
H           -7.71454078668144       -3.50335602479223        4.65930427348341
H           -6.59978134530056       -2.21601864995629        2.86067850128807
H           -4.03416382635483        1.49130516788162       -1.18928640915039
H           -1.60232949823843        1.28931544456804       -1.23706223614734
H           -0.11030975644766       -2.80021167469548       -0.89675768169968
H            2.33339335272424       -3.05292063598876       -0.94615095411532
H            9.11611762117946       -4.43403963508102        0.29529740535471
H           11.47819588475701       -5.09466722121585        0.14605855596010
