  48
  -71.4122420913000       0.574510222077595      !
 C          0.6435480027       -2.5664279073       -1.4387293205
 C          0.2515901876       -1.9876535940       -0.0603034590
 C          0.8569653304       -2.7877236302        1.1222384995
 C         -1.2586347152       -2.1309459247        0.0180646387
 C         -1.8123151975       -3.4036863342        0.0562552830
 C         -3.1800774079       -3.6020166792        0.0920278404
 C         -4.0250379024       -2.5062558571        0.0881385423
 C         -3.4989033439       -1.2316998936        0.0539766553
 C         -2.1165306747       -1.0324341094        0.0189731245
 N         -1.5964850133        0.2514767157       -0.0118191262
 C         -2.5093687004        1.3464968572       -0.0127417066
 C         -2.9404043573        1.8852023369       -1.2179655990
 C         -3.8359566250        2.9403075369       -1.2176170925
 C         -4.3022146049        3.4558346635       -0.0197482208
 C         -3.8736606436        2.9162767583        1.1818893076
 C         -2.9779762154        1.8616821014        1.1893436076
 C         -0.2399571276        0.4928350881        0.0052886147
 C          0.1762013243        1.8472385413        0.0364239377
 C          1.4915761788        2.1775411966        0.0502352072
 C          2.4794433105        1.1722438987        0.0320580557
 C          3.8360090387        1.5283781266        0.0415080353
 C          4.8207360121        0.5657295739        0.0190011128
 C          6.1825532438        0.9259470593        0.0309139665
 N          7.2986051797        1.1971493545        0.0369155046
 C          4.4462979635       -0.7952472635       -0.0144168120
 C          3.1310692882       -1.1538486723       -0.0209581168
 C          2.0805207251       -0.1974819799        0.0022053163
 C          0.6990527427       -0.5328837426       -0.0057169766
 H          0.4424591538       -3.6338521495       -1.4761637917
 H          1.6878995071       -2.3977123146       -1.6775738652
 H          0.0448466949       -2.0832689670       -2.2096894883
 H          0.0654299120       -3.1164930243        1.7923933175
 H          1.5367240538       -2.1747878790        1.7069909068
 H          1.3899300275       -3.6711021863        0.7783741905
 H         -1.1594704747       -4.2632940982        0.0593779650
 H         -3.5811484815       -4.6033957531        0.1200320505
 H         -5.0957936007       -2.6409305744        0.1131466574
 H         -4.1623406416       -0.3807547305        0.0530232783
 H         -2.5690404245        1.4741472448       -2.1450595435
 H         -4.1699635674        3.3592931403       -2.1547599194
 H         -5.0007968460        4.2787170044       -0.0224616055
 H         -4.2372967810        3.3163512996        2.1162174442
 H         -2.6361988114        1.4311952644        2.1192009856
 H         -0.5726011718        2.6232821118        0.0497932658
 H          1.7974407795        3.2128554952        0.0744640690
 H          4.1020208371        2.5757144200        0.0665728107
 H          5.2191375064       -1.5498486712       -0.0336425877
 H          2.9064411656       -2.2038024947       -0.0405721362
  48
  -71.4119583279000       0.425489777922405      !
 C          0.6076479202       -2.5150193282       -1.4884310042
 C          0.2489544118       -1.9864959687       -0.0809510299
 C          0.8832438642       -2.8285066502        1.0561263450
 C         -1.2593691223       -2.1330044696        0.0247664022
 C         -1.8109880534       -3.4071028224        0.0450678091
 C         -3.1780301928       -3.6084183191        0.0887457398
 C         -4.0245181290       -2.5140290281        0.1042591739
 C         -3.5005462304       -1.2382312661        0.0853308099
 C         -2.1186671289       -1.0356432231        0.0514019868
 N         -1.5989280593        0.2491804376        0.0420271062
 C         -2.5070856709        1.3460200486       -0.0089836592
 C         -3.1154834707        1.8069682511        1.1520541587
 C         -4.0064491539        2.8636663107        1.0873275702
 C         -4.2893279538        3.4616649466       -0.1298485146
 C         -3.6816775271        3.0022630471       -1.2865158145
 C         -2.7923187016        1.9436941567       -1.2299186607
 C         -0.2419659297        0.4894120810        0.0706584145
 C          0.1737946742        1.8404182112        0.1746040302
 C          1.4890246963        2.1709590471        0.1934326269
 C          2.4771631846        1.1694296784        0.1060432244
 C          3.8335081211        1.5267060276        0.1038504890
 C          4.8179443559        0.5674467545        0.0146705810
 C          6.1803455966        0.9257845576        0.0098392036
 N          7.2930208945        1.2097547057        0.0080649791
 C          4.4435073151       -0.7910606152       -0.0733602149
 C          3.1286117657       -1.1508924560       -0.0671692809
 C          2.0785545251       -0.1980070187        0.0205846021
 C          0.6972527023       -0.5343624875        0.0165442383
 H          1.6484799552       -2.3454836575       -1.7419840281
 H         -0.0023934386       -1.9980829625       -2.2279883548
 H          0.3961878500       -3.5786037473       -1.5620963884
 H          1.5686147121       -2.2330787331        1.6522791314
 H          1.4178016571       -3.6914276080        0.6658707477
 H          0.1082682444       -3.1926611789        1.7272899361
 H         -1.1571295220       -4.2657458083        0.0244823049
 H         -3.5773395237       -4.6107874299        0.1035928939
 H         -5.0950022150       -2.6505782686        0.1301661358
 H         -4.1662426276       -0.3892544113        0.0931025313
 H         -2.8871973396        1.3315422161        2.0947886962
 H         -4.4798046549        3.2206332392        1.9895744107
 H         -4.9839845449        4.2864869224       -0.1768260916
 H         -3.9008464828        3.4669679192       -2.2359717137
 H         -2.3114582397        1.5761246071       -2.1246554699
 H         -0.5755312519        2.6130638425        0.2437272286
 H          1.7946565647        3.2036191412        0.2731224784
 H          4.0994923517        2.5721171500        0.1723530628
 H          5.2161185228       -1.5428483014       -0.1448010408
 H          2.9040604681       -2.1991174504       -0.1303083076
