106
 energy: -178.809604114279 gnorm: 0.000064526724 xtb: 6.7.1 (edcfbbe)
N           -2.25616942084938        3.31313721966929        0.58324191871981
C           -1.66762026554832        2.36523049661649        0.30793712630365
C           -0.95455223987295        1.17722296587010        0.05399108292807
C            0.45773152225978        1.15896808655280       -0.03109713333213
C            1.26384946829733        2.37375984023202       -0.11667925790353
C            0.80635947563756        3.52093108010129       -0.76655558687788
C            1.59700999896220        4.64854772721400       -0.83431989191814
C            2.86517823086894        4.65722954780881       -0.25429559848750
N            3.66370804382751        5.81345536869406       -0.31174662611562
C            3.22285356928131        7.01296399840981        0.25956392619093
C            2.02329209480360        7.11003640297754        0.95536397564143
C            1.61985282778556        8.31300642495362        1.51446792323478
C            2.41259245584369        9.43770260179863        1.40043590331050
C            3.62927322336732        9.34984953761420        0.74058838693449
C            4.03642036807812        8.15136033171368        0.18277307900569
O            5.27114007807576        8.13796601667940       -0.42127820769053
C            5.69095843720938        6.95263383684097       -0.97634624594676
C            6.92783473373214        6.95834574319082       -1.59566553077457
C            7.40744389333932        5.81272635885257       -2.21291322441400
C            6.63064657474467        4.67138404173762       -2.22261335182363
C            5.39131153201870        4.66065138967629       -1.60098553160953
C            4.91145164842602        5.78864704058189       -0.94534668575212
C            3.33548560052717        3.50510840319727        0.37689302558142
C            2.54727089827342        2.37729904160094        0.43663469644063
N            1.12570677245215        0.01609449044658       -0.01182792133744
C            0.50438310835882       -1.15267887679066        0.01120588708712
C            1.35997209815156       -2.33313945506707        0.09820187608193
C            2.63955626356407       -2.28677333451728       -0.46193223169014
C            3.47530268368905       -3.37950730757066       -0.39704190057981
C            3.05812790535977       -4.54468258642889        0.24743380749633
N            3.90729430160930       -5.66373176284363        0.31363728353049
C            5.15625279095375       -5.57546476049787        0.93934583422635
C            5.58760151115976       -4.42026195176568        1.58123471275756
C            6.82973865423535       -4.36797252228237        2.19508771490479
C            7.65802069754826       -5.47256176478546        2.19188834567118
C            7.22793951703925       -6.64497647889569        1.58864830552047
C            5.98861190613300       -6.70204518345156        0.97685725896306
O            5.62063345275040       -7.91073810950868        0.43562837523944
C            4.38443436986163       -7.98670553101651       -0.16073417680896
C            4.03010529402731       -9.20805748925828       -0.70481515851934
C            2.81490449233874       -9.35862482670858       -1.35591626946969
C            1.97007934747364       -8.27310349609177       -1.47526165454292
C            2.32075599000520       -7.04728373246798       -0.93029912353529
C            3.51869851264119       -6.88786608887846       -0.24323759841515
C            1.79307439449151       -4.58552627871870        0.83281693495542
C            0.95423135524029       -3.49364829196256        0.75859604776994
C           -0.90626989751556       -1.22834173990691       -0.06914110826721
C           -1.57081434354552       -2.44537603818379       -0.31704998123675
N           -2.12058946651312       -3.41806854649347       -0.58600449732823
C           -1.64983138554932       -0.04005527415631       -0.00724809015303
C           -3.11573185927410       -0.06836053859165       -0.00602443598691
C           -3.83764844706670        0.73900162950049       -0.88371472150987
C           -5.21620755618896        0.70871060144267       -0.88853728223469
C           -5.90302852995888       -0.11878908968285       -0.00228566159605
N           -7.31028611145944       -0.14395243321478       -0.00011431644408
C           -8.00131223716689       -1.32584072515198       -0.28997105283148
C           -7.35028801108547       -2.50021839989206       -0.64892045889541
C           -8.06721844288207       -3.65278986710030       -0.93321301587610
C           -9.44646291970851       -3.64970550706014       -0.87592640819236
C          -10.11319251408263       -2.47665206833162       -0.55387795874267
C           -9.40242447932591       -1.32440386492121       -0.27152544966169
O          -10.13665560860283       -0.19481977624931        0.00437811322905
C           -9.44263871761215        0.96042181485373        0.27822462706387
C          -10.19358669054887        2.08630143400499        0.56291997945528
C           -9.56855999704166        3.28247466652717        0.88353424312418
C           -8.19014528920156        3.33518126079358        0.93662341860864
C           -7.43300204014310        2.20924068958139        0.64980351095273
C           -8.04241744245610        1.01228824790991        0.29231102233920
C           -5.18425560047714       -0.92122586058277        0.88169464328315
C           -3.80548327019891       -0.90162345083990        0.87321775341016
H           -0.15822563729269        3.52452065852426       -1.25105593441843
H            1.24111416625894        5.52798081284914       -1.34967812719459
H            1.39972499025345        6.23764006581733        1.07050941877018
H            0.68010506443718        8.35765042918945        2.04307675457762
H            2.10147341852198       10.37725197737603        1.82905544225948
H            4.28436088009546       10.20224903554894        0.65132358632140
H            7.49705846207689        7.87462911452366       -1.58836933124572
H            8.37457446055395        5.82608662943088       -2.69021369310870
H            6.97878428510382        3.77813511763386       -2.71808787957103
H            4.78860937321364        3.76724782400506       -1.63495313774641
H            4.31617593905140        3.50869676326247        0.82841868658142
H            2.90068952442019        1.48665865114309        0.93218391684232
H            2.95253853619522       -1.38590099676796       -0.96606397706815
H            4.45294632986473       -3.34533253301750       -0.85383153258202
H            4.94486338689993       -3.55500349735928        1.61034690839512
H            7.13938841754869       -3.45493438232076        2.67984005165119
H            8.62742275052051       -5.43657466306495        2.66339477454162
H            7.83839051944408       -7.53434884900104        1.58671861157852
H            4.72486801177227      -10.02801547025537       -0.61180084434855
H            2.54555053771158      -10.31563669382279       -1.77394549765417
H            1.02997504679787       -8.36641785118477       -1.99682007306552
H            1.65671573704629       -6.20593467204066       -1.04993458269999
H            1.47787552537671       -5.47462562459957        1.35795086134255
H           -0.00755626016841       -3.53446820365643        1.24692250786087
H           -3.31500777278935        1.36905391597490       -1.58844066055454
H           -5.76937927649836        1.32140726483616       -1.58418595807329
H           -6.27380236572657       -2.51625875965633       -0.71584441354530
H           -7.53236899532090       -4.55042342556310       -1.20283367383892
H          -10.00941704815948       -4.54420062050199       -1.09097413482906
H          -11.19048969684362       -2.43220946804730       -0.52112103783009
H          -11.26868133602434        2.00304348530966        0.53337174773443
H          -10.16263847826064        4.15613227123441        1.10056447099580
H           -7.68721666264046        4.25144499435309        1.20506974892419
H           -6.35758322206492        2.26410785213166        0.71352771793311
H           -5.71303947273827       -1.55338522872241        1.57890280475724
H           -3.25849544920062       -1.51256525134777        1.57625608481800
