106
 energy: -178.809607860866 gnorm: 0.000153780585 xtb: 6.7.1 (edcfbbe)
N           -2.27708010910347        3.25601695558540        0.62518164690588
C           -1.66959424198879        2.32321270832750        0.33960464048114
C           -0.93405911082354        1.15171384809017        0.07308590351966
C            0.47820134262637        1.15993199991405       -0.01266315108418
C            1.26283528007456        2.38961520846355       -0.08442157666855
C            0.78332402681389        3.53750699893642       -0.71697985478147
C            1.55393480335010        4.67959946209499       -0.77109805853516
C            2.82383925300066        4.70213917273289       -0.19530477049904
N            3.60119559095545        5.87342845368530       -0.23846313719575
C            3.14042051915300        7.05565851088155        0.35262594016267
C            1.94468957204433        7.11808656838002        1.05887352176990
C            1.52113180831560        8.30447038134334        1.63815391238076
C            2.28963932282353        9.44679372634038        1.53386330486365
C            3.50256278901401        9.39339109591293        0.86340087916560
C            3.92986264623682        8.21150344839348        0.28559463398073
O            5.15966856651224        8.23173818291187       -0.32826612811786
C            5.59890431224842        7.06308236404653       -0.90345864416414
C            6.82988208214674        7.10284924048963       -1.53316667263652
C            7.32780349336344        5.97573072088696       -2.16974885802299
C            6.57500232387360        4.81853576233218       -2.18809515648402
C            5.34153693602023        4.77370353858940       -1.55635909485675
C            4.84386203180915        5.88283950689821       -0.88216040147454
C            3.31669704290647        3.54957025542921        0.41749364563037
C            2.54807982481223        2.40767681413681        0.46443103007273
N            1.16640356131593        0.02893548231895       -0.00793065436483
C            0.56629308832443       -1.15100567180145        0.00341465338087
C            1.44426501173944       -2.31613637646143        0.07314840657872
C            2.71960160526686       -2.23851545562746       -0.49318993115471
C            3.57669149628528       -3.31541027634743       -0.44529982719320
C            3.18572085714737       -4.49556106641287        0.18823712132052
N            4.05716292445265       -5.59823468700763        0.23740443975207
C            5.30752370913095       -5.49205172573950        0.85749031121293
C            5.71934140810056       -4.33570349429378        1.51004267077055
C            6.96361594853475       -4.26542104599379        2.11772314900381
C            7.81376165009965       -5.35309466218416        2.09748153660956
C            7.40366551790068       -6.52712709791751        1.48354617722337
C            6.16225259654940       -6.60219759750881        0.87795974102962
O            5.81513633475151       -7.81204483490622        0.32558713602121
C            4.57752106696009       -7.90590276404391       -0.26532269276812
C            4.24432457260180       -9.12791396842689       -0.82112522723275
C            3.02903702398185       -9.29504150003545       -1.46805395690797
C            2.16279448932955       -8.22492819845172       -1.57172758986777
C            2.49222225440739       -6.99852491385784       -1.01494219498435
C            3.69004296984986       -6.82341042742061       -0.33152415836155
C            1.92496481450927       -4.56770500426290        0.77983055806380
C            1.06452831731319       -3.49167342278467        0.72224125033310
C           -0.84297644804224       -1.25142281002381       -0.07404918094277
C           -1.48665795251235       -2.47796083009948       -0.33006974903603
N           -2.02039696484053       -3.45821582355075       -0.60387853368671
C           -1.60737751589088       -0.07724063421078       -0.00070607037033
C           -3.07275598132796       -0.12942447355521       -0.00234637392720
C           -3.80432130083248        0.67195789919383       -0.87756170210931
C           -5.18226388259132        0.62313812148676       -0.88437475690145
C           -5.85891722779276       -0.21698017304083       -0.00219964820258
N           -7.26586760490565       -0.25770485218280        0.00026770239184
C           -7.94450353710341       -1.44452584888240       -0.29815882695005
C           -7.28111581801995       -2.60981887793161       -0.66392291346185
C           -7.98599453080844       -3.76760188093007       -0.95706140991075
C           -9.36527457931568       -3.77878561613411       -0.90191664026919
C          -10.04429141078537       -2.61482249890649       -0.57258308451000
C           -9.34558481536112       -1.45748016463590       -0.28118596291187
O          -10.09152918931946       -0.33745797187626        0.00226888827939
C           -9.40956597462689        0.82335617406486        0.28284289045606
C          -10.17224155792213        1.93991024292894        0.57302331648098
C           -9.55976734720636        3.14080547048963        0.90014035254795
C           -8.18200131488507        3.20746620147081        0.95408141191528
C           -7.41311631753024        2.09087536658132        0.66201305555768
C           -8.00995620618259        0.88951538936267        0.29811256877100
C           -5.13056809279741       -1.01499077672121        0.87786978249160
C           -3.75205511990557       -0.97707658383134        0.87108427907152
H           -0.18272013518150        3.53099809732484       -1.19848572564798
H            1.18095130489720        5.56009935775085       -1.27239583902066
H            1.34002212049736        6.23149208282801        1.16603355075160
H            0.58508403507580        8.32202123176508        2.17487455533116
H            1.96270742794340       10.37374459804320        1.97796323225001
H            4.13912234821946       10.26039430754915        0.78124739070778
H            7.38013000094584        8.03056581291196       -1.51836347411293
H            8.29020313477827        6.01593177394542       -2.65500506479692
H            6.93739552005712        3.93922768304186       -2.69810717458586
H            4.75718967060812        3.86846259345999       -1.59698862267134
H            4.29903324010048        3.56395118824891        0.86520401446570
H            2.91848341884605        1.51640677615018        0.94626620877273
H            3.01221219674317       -1.32592250937756       -0.98839370457284
H            4.55094737747290       -3.25721472989921       -0.90687248838360
H            5.05960027045653       -3.48389228261415        1.55236191923828
H            7.25759629667236       -3.35183255960372        2.61110550037292
H            8.78492570866210       -5.30301333981109        2.56406482326699
H            8.03166268961263       -7.40405811345140        1.46840676261361
H            4.95512446664239       -9.93534527033832       -0.74044433669291
H            2.77628136184408      -10.25259060524188       -1.89516238076838
H            1.22216117645828       -8.33082022103036       -2.08992753551604
H            1.81138966460544       -6.16901151816494       -1.12219833647904
H            1.63012360312757       -5.46862808431303        1.29659230926185
H            0.10623282847261       -3.55667614311459        1.21477608725474
H           -3.28917061130065        1.31251440521263       -1.57833911816788
H           -5.74288717466753        1.23172959736654       -1.57765338608672
H           -6.20442265143741       -2.61450529873756       -0.72920884819945
H           -7.44175167629589       -4.65795447626150       -1.23191680885045
H           -9.91888117816431       -4.67735415417034       -1.12411933912998
H          -11.12202829335898       -2.58154648864028       -0.54096187998272
H          -11.24640671985289        1.84569748533832        0.54251262673205
H          -10.16288706578946        4.00717306130527        1.12141751692647
H           -7.68861535407980        4.12747771117930        1.22733472049520
H           -6.33836968600352        2.15677890771701        0.72665268963980
H           -5.65170946279228       -1.65761905538286        1.57125287699628
H           -3.19763027121627       -1.58477985067693        1.57109369607093
