66
 energy: -99.438249636910 gnorm: 0.000055466575 xtb: 6.7.1 (edcfbbe)
C           -9.65425362727195       -2.32332000155659       -1.26375545180023
C           -9.34391896885332       -1.49383003949335       -0.00845650272252
C          -10.25423400148645       -0.26199236273642       -0.01165301324367
C           -9.65477113723832       -2.31736306702877        1.25070141473131
C           -7.86740611450086       -1.13387376616536       -0.00809982549773
C           -6.91178261552266       -2.15253548918082       -0.00557107102889
C           -5.56166963331765       -1.87885097537815       -0.00288294160327
C           -5.11892817964456       -0.55541806697832       -0.00267843222715
C           -3.70544392734283       -0.27174282993978        0.00144818716301
N           -2.73085622470070       -1.13731480706136        0.00451200884221
N           -1.58178569134086       -0.44445234755226        0.00782951588468
C           -1.89143968063059        0.81956171366610        0.00670522705795
C           -0.97751411320708        1.93967472133374        0.00794192410932
C           -1.45398177947972        3.25086975965305        0.00794333382202
C           -0.56143347664476        4.30944498697174        0.00724265722402
C            0.80090073927613        4.07620666235017        0.00626504193785
C            1.28151351115676        2.76413089193043        0.00668961603165
C            2.70799287915312        2.52792305627123        0.00424670694102
N            3.65061030208940        3.42530933051483       -0.00294377077300
N            4.82288679914062        2.77315484220438       -0.00487999615198
C            4.55589593920725        1.49682539218187        0.00144750243353
C            5.50280021120818        0.40952084221388        0.00078481741185
C            5.07147098951118       -0.91674180892412        0.01948056764483
C            5.99429374793649       -1.94096111032350        0.01670101443060
C            7.36698689796096       -1.69042862298857       -0.00550248314461
C            8.33953704838077       -2.85848667259645       -0.00906746049573
C            8.12057683626495       -3.69215826440970        1.26270988886575
C            8.07507181955765       -3.72318616599654       -1.25116359001919
C            9.80337230184123       -2.40920037139888       -0.04135619358350
C            7.78128189639888       -0.36044719137577       -0.02318956651912
C            6.87019530731448        0.67724012884631       -0.01999053221014
O            3.21975958915456        1.27480863561839        0.00766902021451
C            0.39308904123461        1.69517878496598        0.00780125212962
O           -3.23386434190334        0.99870733558416        0.00275879238045
C           -6.05890463532906        0.47224700981109       -0.00624997886284
C           -7.40966306817873        0.18070756009512       -0.00889708675263
H           -9.41102441190485       -1.75596474459388       -2.16000913655999
H           -9.08516102294263       -3.24837850362899       -1.28097590099748
H          -10.71240032012452       -2.57386069135416       -1.29056794879291
H          -11.29387137741381       -0.58274991014856       -0.01178859499729
H          -10.09266308149494        0.34788550803077        0.87421733945076
H          -10.09127866955155        0.34424494336951       -0.89977194257785
H           -9.08691500968501       -3.24311506268290        1.27149339958220
H          -10.71324784015380       -2.56626550470740        1.27942441966247
H           -9.41000322191831       -1.74645821938911        2.14429383459960
H           -7.22452534833980       -3.18500903348051       -0.00542002072088
H           -4.82977584512541       -2.67122178926040       -0.00065497674263
H           -2.51837004594388        3.43056235767808        0.00830724719220
H           -0.93247070194789        5.32271016115301        0.00714864991010
H            1.51162461760002        4.88710455894304        0.00499456751768
H            4.01361889279497       -1.13538729829944        0.03613879246858
H            5.63035064123615       -2.95662155942341        0.03181524009643
H            8.82379695060421       -4.52159496418823        1.28865142040653
H            8.27822835537953       -3.07802738451353        2.14717194624580
H            7.11391904847823       -4.09843203430164        1.30456133789830
H            8.78005230827347       -4.55086060908550       -1.28425896736423
H            8.19603685934932       -3.13010112053235       -2.15554144175417
H            7.06935238352905       -4.13378097825585       -1.24444285646257
H           10.01680001874427       -1.83266612926239       -0.93841492157849
H           10.05056026136244       -1.81408720508812        0.83461570923632
H           10.44910648375815       -3.28492580322872       -0.04428929553573
H            8.82976245746555       -0.11456516346126       -0.04017324519633
H            7.19718636611677        1.70517552614727       -0.03396338846648
H            0.74562534758729        0.67594821622118        0.00785794847113
H           -5.72684173113308        1.50027346227976       -0.00664212848374
H           -8.10550370987188        1.00317125425308       -0.01138976889997
