66
 energy: -99.438205326465 gnorm: 0.000034818407 xtb: 6.7.1 (edcfbbe)
C           -9.39620245443422       -2.79203823514845       -0.00012264367592
C           -9.12239119495985       -1.28522879391666       -0.00117804911435
C           -9.76456617652760       -0.68129004589780       -1.25951706424139
C           -9.76656708068925       -0.67911552702254        1.25509341899500
C           -7.63819758247628       -0.95803121013485       -0.00018943348334
C           -6.64651691460529       -1.93650304916293        0.00206297568605
C           -5.30642020659381       -1.60310926012853        0.00294717663110
C           -4.91662631616589       -0.26521936099887        0.00162913406859
C           -3.51626298205275        0.07709357711063        0.00237763921099
N           -2.50514671994595       -0.74547628871264        0.00375437913955
N           -1.38715677708945       -0.00330138437840        0.00375061537778
C           -1.75130673464124        1.24605892667215        0.00238682288493
C           -0.88805691228012        2.40565153570095        0.00176774228828
C           -1.42342068524612        3.69394056764380        0.00121310029606
C           -0.58017016009173        4.79211999922202        0.00058478030962
C            0.79137258396300        4.62111126992832        0.00045561344329
C            1.33095593502634        3.33218293937786        0.00097706879482
C            2.76655662217053        3.15991220252489        0.00070822150695
N            3.66926253306564        4.09743918765779        0.00032667139190
N            4.86887753065661        3.49682248864744        0.00010551121350
C            4.65750326092446        2.21011290431058        0.00035461343745
C            5.64942528357101        1.16377607585092        0.00014634116254
C            5.27258257836932       -0.17913666715737        0.00043239739510
C            6.23635280577491       -1.16478122949889        0.00012965695779
C            7.59778575485857       -0.85808722517216       -0.00046468815336
C            8.61674411106262       -1.98587711957282       -0.00080009835351
C           10.06177385302547       -1.47838622379377       -0.00151804476395
C            8.40952964162947       -2.84389668741389        1.25667899568879
C            8.40838477759337       -2.84419263836717       -1.25788930715770
C            7.95751554395464        0.48778178645451       -0.00071878919469
C            7.00478012996458        1.48748475279487       -0.00041845090702
O            3.33230530344324        1.93030364239329        0.00075659635968
C            0.49218416989204        2.22375812126594        0.00167018323125
O           -3.10017520575571        1.36674289594954        0.00147335242967
C           -5.89751180853210        0.72626608919425       -0.00058900421116
C           -7.23091691763658        0.37671281047377       -0.00144110260766
H           -8.98110021348358       -3.26682871434831       -0.88606819317137
H           -8.98282871453727       -3.26529665503897        0.88744753303067
H          -10.47075257841739       -2.96273777149310       -0.00101322982308
H          -10.82441331417911       -0.92422550365992       -1.28831270422966
H           -9.66339136361721        0.40015427461153       -1.27930400280499
H           -9.29364208270211       -1.08521964008583       -2.15359683219504
H           -9.29714601905001       -1.08159542340575        2.15061540017884
H          -10.82648662080240       -0.92188623376626        1.28256229995792
H           -9.66527209947767        0.40234964201359        1.27321087119111
H           -6.90904410376440       -2.98114810418090        0.00311905740987
H           -4.54313885441347       -2.36548640285406        0.00464708063152
H           -2.49483307714441        3.82507043817146        0.00129006348690
H           -0.99722818549663        5.78733691414033        0.00017456278153
H            1.46447224824764        5.46345263796009       -0.00006443794215
H            4.22440865395105       -0.44078301181594        0.00087628382234
H            5.91388739188266       -2.19452361216337        0.00035854799753
H           10.74167374640955       -2.32785374162853       -0.00174384719076
H           10.26844261452633       -0.88393328902456       -0.88839980327999
H           10.26926245714777       -0.88375536613376        0.88505222410657
H            9.14386519658048       -3.64587829345151        1.28443289454243
H            7.41904072462022       -3.28962740191655        1.27638794022298
H            8.52817833249325       -2.23565905850128        2.15123495710683
H            7.41790901339977       -3.28999640370851       -1.27655224379678
H            8.52613661492371       -2.23614650974939       -2.15269431977526
H            9.14274716780039       -3.64613114417621       -1.28616525140334
H            8.99527013968116        0.77623653009797       -0.00116290943476
H            7.28954240431482        2.52805631548118       -0.00062877796667
H            0.89123402951279        1.22179219223199        0.00210430126169
H           -5.60652719007003        1.76657756864139       -0.00162031739208
H           -7.96654890755601        1.16608494107229       -0.00312347934891
