  66
        -99.29702653
 C         -9.6350053878       -2.4385362593        1.1988101340
 C         -9.3309406502       -1.5630899421       -0.0274947409
 C         -9.6005902073       -2.3639153399       -1.3120052011
 C        -10.2803183845       -0.3621977333       -0.0034119519
 C         -7.8718520107       -1.1612248495       -0.0016540948
 C         -6.8787863756       -2.1595324142        0.0006647152
 C         -5.5468568006       -1.8558589259        0.0151074921
 C         -5.1239513561       -0.5016218348        0.0248009503
 C         -3.7625075434       -0.1873344855        0.0299401505
 N         -2.7348164189       -1.0574248947        0.0358024402
 N         -1.6343299003       -0.3979016125        0.0345498366
 C         -1.9234705765        0.9227820510        0.0267750586
 C         -1.0106833380        1.9782554621        0.0158048174
 C         -1.4530098125        3.3389286184       -0.0002139710
 C         -0.5347475608        4.3590383958       -0.0161113236
 C          0.8292120520        4.0930518483       -0.0162091843
 C          1.2784832234        2.7479876328        0.0006785503
 C          2.6928298625        2.4916181883       -0.0022937425
 N          3.6517378422        3.3808674261       -0.0226280970
 N          4.8082826851        2.7232053935       -0.0220970019
 C          4.5347819670        1.4457641293       -0.0010021422
 C          5.4786708040        0.3599010020        0.0038146394
 C          5.0517351862       -0.9658894020        0.0414574711
 C          5.9745574591       -1.9934673856        0.0405592148
 C          7.3423256990       -1.7386045623        0.0014668812
 C          8.3872447512       -2.8410364114       -0.0082695147
 C          9.3027546758       -2.6727855191        1.2126995267
 C          7.7715153035       -4.2415822714        0.0455595215
 C          9.2131370551       -2.7292007361       -1.2979444807
 C          7.7539330149       -0.4042407226       -0.0342531238
 C          6.8476146612        0.6318766172       -0.0327477875
 O          3.1974506310        1.2339755702        0.0130328053
 C          0.3747074481        1.7092573069        0.0167105553
 O         -3.2878398227        1.1064005767        0.0255006047
 C         -6.1184368270        0.5082535288        0.0245353786
 C         -7.4474914921        0.1755848148        0.0122321193
 H         -9.0349301417       -3.3436523110        1.2022876210
 H         -9.4282088150       -1.8879462500        2.1139115412
 H        -10.6839931774       -2.7258252764        1.1977374306
 H        -10.6481979034       -2.6529887590       -1.3560111983
 H         -9.3715178978       -1.7589000351       -2.1866658471
 H         -8.9957202691       -3.2651786929       -1.3529360091
 H        -10.1410187843        0.2293568915        0.8984328627
 H        -11.3093645239       -0.7149563181       -0.0168560054
 H        -10.1333767809        0.2722546667       -0.8742791887
 H         -7.1705675682       -3.1984746362       -0.0103550216
 H         -4.7915317865       -2.6251033622        0.0165151498
 H         -2.5130972888        3.5361458498       -0.0009043680
 H         -0.8733295883        5.3843312031       -0.0294092818
 H          1.5628954898        4.8807924812       -0.0292632964
 H          3.9951387461       -1.1858934179        0.0711496816
 H          5.6069025232       -3.0056983177        0.0699751908
 H         10.0463925669       -3.4663237805        1.2323658191
 H          9.8232169017       -1.7198621462        1.1922640795
 H          8.7193713705       -2.7235715162        2.1294819284
 H          8.5653611505       -4.9854419637        0.0384912558
 H          7.1349839288       -4.4237824420       -0.8169880101
 H          7.1911985870       -4.3798433727        0.9547346438
 H          8.5664688714       -2.8229653319       -2.1679977603
 H          9.7287192856       -1.7749160773       -1.3583633856
 H          9.9572797206       -3.5216842148       -1.3337283364
 H          8.8060165276       -0.1665612539       -0.0651160878
 H          7.1710985438        1.6601186075       -0.0607121086
 H          0.7007854155        0.6814413193        0.0292982898
 H         -5.8086053094        1.5419330996        0.0335670219
 H         -8.1732267160        0.9722791417        0.0120006123
