  66
        -99.39476818
 C         -9.6442852919       -2.3155182411       -1.2743577332
 C         -9.3391094063       -1.4993768675       -0.0100722865
 C        -10.2547751202       -0.2723077720       -0.0001591258
 C         -9.6485067075       -2.3377267594        1.2385783962
 C         -7.8644794860       -1.1330069100       -0.0050738361
 C         -6.9062145572       -2.1482873002       -0.0051753369
 C         -5.5573907560       -1.8696079785        0.0000734683
 C         -5.1207429411       -0.5450297520        0.0049009402
 C         -3.7075954484       -0.2587196135        0.0105290196
 N         -2.7329801996       -1.1236152507        0.0219933184
 N         -1.5869463539       -0.4331063522        0.0227171431
 C         -1.8952182451        0.8315939195        0.0118614297
 C         -0.9785528065        1.9484190759        0.0062948856
 C         -1.4501653421        3.2607815553       -0.0056566412
 C         -0.5538586365        4.3157339215       -0.0129549012
 C          0.8071726599        4.0773330075       -0.0088156100
 C          1.2823629389        2.7637288036        0.0031661083
 C          2.7078147553        2.5251176959        0.0036965481
 N          3.6528319161        3.4207403895       -0.0106551833
 N          4.8209420876        2.7682500790       -0.0092923292
 C          4.5523501382        1.4924750243        0.0062039393
 C          5.4990141265        0.4046148743        0.0087668345
 C          5.0685475120       -0.9207111820        0.0379201225
 C          5.9920362169       -1.9441745361        0.0334254415
 C          7.3632974107       -1.6919333114       -0.0021147877
 C          8.3354044336       -2.8597299543       -0.0094037207
 C          8.1424298388       -3.6743688816        1.2777077117
 C          8.0477559602       -3.7422703478       -1.2325604984
 C          9.7975780234       -2.4116933217       -0.0784446009
 C          7.7769511382       -0.3626860708       -0.0271179888
 C          6.8650097333        0.6739854338       -0.0214702050
 O          3.2174754336        1.2722998781        0.0153142661
 C          0.3907039262        1.6981088370        0.0110555870
 O         -3.2370424237        1.0109941931        0.0039457771
 C         -6.0631562940        0.4789590741        0.0039863985
 C         -7.4128443680        0.1827337783       -0.0007581253
 H         -9.4077723452       -1.7346276478       -2.1633418891
 H         -9.0654810813       -3.2341778111       -1.3039226401
 H        -10.6997701315       -2.5766699818       -1.3035158296
 H        -11.2931891721       -0.5967795259       -0.0021226474
 H        -10.0939819746        0.3295860328        0.8911848418
 H        -10.0952401505        0.3433477916       -0.8822551032
 H         -9.0753879456       -3.2602892633        1.2504180736
 H        -10.7054561685       -2.5933776625        1.2630866978
 H         -9.4084344309       -1.7752896520        2.1384319116
 H         -7.2168360912       -3.1816015997       -0.0095612173
 H         -4.8218611489       -2.6579964989        0.0004744606
 H         -2.5140763960        3.4442442559       -0.0097181818
 H         -0.9215091064        5.3305247838       -0.0224387482
 H          1.5217039129        4.8846850984       -0.0151656887
 H          4.0116695038       -1.1404311209        0.0635401227
 H          5.6304325943       -2.9606841908        0.0574263406
 H          8.8382018866       -4.5101704935        1.2980344471
 H          8.3273652093       -3.0496297999        2.1489423028
 H          7.1331153081       -4.0693698423        1.3497758464
 H          8.7531131562       -4.5694452717       -1.2689817073
 H          8.1491286290       -3.1615554815       -2.1468882494
 H          7.0432285544       -4.1540348281       -1.1996168632
 H          9.9899294716       -1.8424853182       -0.9847480232
 H         10.0645078454       -1.8091193840        0.7863184319
 H         10.4432517622       -3.2872247050       -0.0885344801
 H          8.8253479601       -0.1169576937       -0.0531566582
 H          7.1901767251        1.7019125240       -0.0421083364
 H          0.7382640241        0.6775443676        0.0201454524
 H         -5.7352803283        1.5079650032        0.0073507517
 H         -8.1124341373        1.0022555487       -0.0002842353
