66
 energy: -99.340917829126 gnorm: 0.000051974331 xtb: 6.7.1 (edcfbbe)
C           -9.61844684081714       -2.40578766210235        1.22830482317341
C           -9.32208565469796       -1.56589891622065       -0.02641984757860
C           -9.60017178989420       -2.40691402061175       -1.28459150831837
C          -10.27026453720180       -0.36342687106671       -0.03411038932142
C           -7.86335650671137       -1.16733054428631       -0.01576637727511
C           -6.86982017081396       -2.16707424321820       -0.01203865386059
C           -5.53747386895478       -1.86426094119229       -0.00412043249785
C           -5.11260241056468       -0.50992024191904        0.00116666584360
C           -3.74992233538500       -0.19528966233212        0.00728180746080
N           -2.72321173409448       -1.06378563703213        0.00651931042606
N           -1.61881182331936       -0.40177409694525        0.01074792016354
C           -1.91213925465356        0.91951244588547        0.01466649804550
C           -1.00438883115940        1.97921233694195        0.01818956026793
C           -1.45352263163511        3.33940200216590        0.02293787306021
C           -0.54083932967569        4.36462401021197        0.02323492764038
C            0.82521487784961        4.10671690791959        0.01846884489141
C            1.28229734939695        2.76334264496277        0.01422623645405
C            2.69762346733906        2.51083035658535        0.00676101190098
N            3.65471455330873        3.40179919166806       -0.00356350886485
N            4.81586571518152        2.74166367443123       -0.01072144262410
C            4.54084226965495        1.46442539039923       -0.00403199180797
C            5.48071062672175        0.37535769606250       -0.00714070255376
C            5.04531631894622       -0.94932172483157        0.01841601905218
C            5.96131499313760       -1.98275731218178        0.01737883828533
C            7.33234823609440       -1.73709313344976       -0.00988829495692
C            8.36926444135279       -2.84708129666233       -0.00999488655530
C            9.26750644030177       -2.68818617575653        1.22655199846644
C            7.74283897691929       -4.24414247333377        0.02982903043414
C            9.21693808199786       -2.73625595828846       -1.28681033065123
C            7.75228164734862       -0.40405683637646       -0.03759986351922
C            6.85273755565820        0.63813707270280       -0.03589479323336
O            3.20178029230459        1.25180003907148        0.00742102676261
C            0.38327213963176        1.71996308983924        0.01495364635818
O           -3.27773859357893        1.10193647161449        0.01302628688921
C           -6.10681179045370        0.50131097916495       -0.00092908086765
C           -7.43633311678520        0.17033140317943       -0.00924125620516
H           -9.02111479442647       -3.31246062497549        1.25285774847320
H           -9.40349857492935       -1.82943917818582        2.12579632734351
H          -10.66858992102594       -2.68813219933181        1.24132076935287
H          -10.65126447689607       -2.68427480924270       -1.31576448256823
H           -9.36661256118384       -1.83337770227057       -2.17923185949055
H           -9.00705222078546       -3.31656529864535       -1.29692888166034
H          -10.13462993673102        0.24973280875952        0.85376251323076
H          -11.29924270299588       -0.71641322672767       -0.04228802148770
H          -10.12018488190214        0.24936552994402       -0.91993270975057
H           -7.16107143221746       -3.20577761494701       -0.01584456875443
H           -4.78255942283156       -2.63432417138379       -0.00189934964893
H           -2.51475932184902        3.53139414082964        0.02607689444678
H           -0.88479873248429        5.38811241336755        0.02686043407803
H            1.55353743244221        4.89968838221553        0.01783833372713
H            3.98630657960072       -1.16176175862050        0.03986909752268
H            5.58592177577612       -2.99231250601722        0.03841538697161
H           10.00339341010451       -3.48864857531793        1.25514098038729
H            9.79659329890286       -1.73968310473772        1.21576737858407
H            8.66981580734057       -2.73576168295665        2.13467256834780
H            8.53236762269690       -4.99268748635361        0.03058689271036
H            7.11692881276310       -4.41917996206323       -0.84214350723115
H            7.14962660999350       -4.38260542501059        0.93076196434922
H            8.58401412577926       -2.82049142580533       -2.16805031605563
H            9.74328636154055       -1.78729226869591       -1.33428811322431
H            9.95326115362861       -3.53643139897264       -1.31301147879390
H            8.80541955524518       -0.17159752124028       -0.06051023521066
H            7.18351450092284        1.66463318130258       -0.05631274481965
H            0.71599343794963        0.69376305506970        0.01146863888948
H           -5.79471775262312        1.53483737581815        0.00367483193136
H           -8.16051563744002        0.96812792464672       -0.01098851545897
