  79
       -120.89610698
 C          5.9759225799        4.2855080858       -0.8843111073
 C          4.9509748004        3.5430620645       -1.4486653976
 C          4.8818218444        2.1786661084       -1.2473656158
 C          5.8422960712        1.5344903027       -0.4660746031
 N          5.7749286723        0.1540708167       -0.2547095803
 C          6.9509867242       -0.6001574554       -0.1914732680
 C          8.0294709213       -0.2986617272       -1.0238144119
 C          9.1901600346       -1.0437902593       -0.9545051870
 C          9.2938320856       -2.1001762183       -0.0637986404
 C          8.2243168351       -2.4059203029        0.7624813115
 C          7.0612183140       -1.6635357703        0.7051345360
 C          4.5345037203       -0.4695831122       -0.1079062214
 C          3.4855081097        0.1808748924        0.5458132191
 C          2.2577948853       -0.4283488905        0.6739443700
 C          2.0290161799       -1.7093196482        0.1655555582
 C          0.7112176789       -2.3361983446        0.2951785552
 C          0.5890236945       -3.7210164359        0.5134511724
 C         -0.6755891003       -4.3016532098        0.5850224353
 C         -1.8077708263       -3.5387167796        0.4812649969
 C         -1.7174458227       -2.1231893317        0.3152914312
 C         -2.9165416380       -1.3960351557        0.2372236052
 N         -4.1015486821       -1.9854921558       -0.0177148249
 C         -4.9893863374       -1.0207691278       -0.1643353275
 C         -6.3668144173       -1.1523922542       -0.5084067157
 C         -6.9120057458       -2.4056793714       -0.7895774587
 C         -8.2368930443       -2.5250910370       -1.1605508487
 C         -9.0151647797       -1.3818136234       -1.2585899857
 C         -8.4846722141       -0.1352610836       -0.9753774680
 C         -7.1509576697        0.0231650355       -0.5817795222
 C         -6.5735081042        1.3126601383       -0.2393708921
 C         -7.3470496632        2.4697315578       -0.2012520577
 C         -6.8276394989        3.6990380115        0.1581739761
 C         -5.4826957853        3.8065916469        0.5231434396
 C         -4.6786034266        2.7023596964        0.4966347929
 C         -5.1760553258        1.4321741313        0.1012746402
 C         -4.3985327687        0.2736147467        0.0601823944
 N         -3.0711052725        0.0141000770        0.3159515874
 C         -2.0637784491        0.9023127258        0.7010359748
 C         -1.4174885978        0.7252240224        1.9271001310
 C         -0.3935641025        1.5749595489        2.2949875918
 C          0.0030896475        2.6030635018        1.4512135262
 C         -0.6377855613        2.7809988759        0.2332660766
 C         -1.6662113840        1.9410288103       -0.1447365588
 C         -0.4255778775       -1.5606567899        0.1942627105
 C          3.0872848740       -2.3601192451       -0.4711819718
 C          4.3162157684       -1.7532756337       -0.6126208803
 C          6.8706456389        2.2873194512        0.1023083310
 C          6.9341868955        3.6503738565       -0.1108434248
 H          6.0275510859        5.3511724553       -1.0462260876
 H          4.2035243999        4.0285680025       -2.0584584312
 H          4.0891724858        1.5997424281       -1.6977370308
 H          7.9451505757        0.5171971407       -1.7266685689
 H         10.0162550301       -0.8029200921       -1.6068500714
 H         10.2017158897       -2.6813549359       -0.0140849317
 H          8.2988800939       -3.2238304478        1.4635695521
 H          6.2322642518       -1.8945185624        1.3577772178
 H          3.6468754642        1.1650195020        0.9603968360
 H          1.4668738084        0.0849431221        1.1988273671
 H          1.4726336960       -4.3281601244        0.6326392435
 H         -0.7588964912       -5.3693254030        0.7296752204
 H         -2.7914155979       -3.9742234493        0.5394236644
 H         -6.2657557468       -3.2660091690       -0.7141034504
 H         -8.6599838505       -3.4941481833       -1.3774102470
 H        -10.0503828853       -1.4591674344       -1.5583578291
 H         -9.1319407746        0.7217629708       -1.0702466737
 H         -8.3956983605        2.4213558583       -0.4473699699
 H         -7.4640034323        4.5707334154        0.1727664639
 H         -5.0825656691        4.7614150233        0.8312962452
 H         -3.6499043128        2.7882837841        0.8031360958
 H         -1.7255653530       -0.0828549685        2.5734667842
 H          0.0990351919        1.4368048597        3.2464958318
 H          0.8099512397        3.2596512988        1.7389622062
 H         -0.3267651719        3.5755202257       -0.4287384075
 H         -2.1620620971        2.0679031012       -1.0960577959
 H         -0.3193178815       -0.5191666463       -0.0572727691
 H          2.9321925555       -3.3417439763       -0.8930250379
 H          5.1158947164       -2.2626685980       -1.1301121313
 H          7.6114893750        1.7959494779        0.7157652016
 H          7.7330910453        4.2217403388        0.3378372971
