75
 energy: -135.771016534649 gnorm: 0.000115504864 xtb: 6.7.1 (edcfbbe)
C           -3.90573667413044        5.63575390843411       -1.77569334828621
C           -4.26932111758450        4.99718458839992       -0.42443465082463
C           -3.77045863112963        5.89334054255613        0.72144856846626
C           -5.79445423731611        4.89888986104870       -0.33018759153076
C           -3.58255612925539        3.65305960681726       -0.32513554099438
C           -2.18159873136404        3.58296131511808       -0.37132128982613
C           -1.52763879665096        2.38391455146198       -0.27563183130121
C           -2.24378843148648        1.18155167698715       -0.12317082376359
C           -3.65318300745147        1.22248427002360       -0.10813015353615
C           -4.27886140130593        2.45550114845731       -0.20312574288149
C           -4.48353308026554       -0.03328911712218       -0.00912060679561
C           -5.36087673402311       -0.14104960900712       -1.27548081280719
C           -5.37825897642227        0.05818074525423        1.24621548935316
C           -3.63156231723859       -1.27371660123335        0.09892757849353
C           -4.23556200605501       -2.51775732314853        0.19071376917555
C           -3.51867576900979       -3.70242206981224        0.31923931125326
C           -4.18179117248709       -5.05873495601541        0.41387447891486
C           -5.70783489528552       -4.98778524784181        0.31019735945673
C           -3.81528699827940       -5.69164386137974        1.76697255964004
C           -3.65970975238441       -5.94479237940286       -0.72956396495823
C           -2.11955824565098       -3.60697821799247        0.37545359232560
C           -1.48666249406770       -2.39648095291101        0.28235000641734
C           -2.22327798306608       -1.20742099921706        0.12323917128480
N           -1.57241670259875       -0.00713165507040        0.00120395776882
C           -0.15439402556397        0.00485821281987        0.00209945802073
C            0.58943815923651       -0.35319226920206       -1.14213585884010
F           -0.09421886220102       -0.67170319392000       -2.26339972635417
C            1.95743390143310       -0.34064428299643       -1.14342169663176
F            2.59676267256554       -0.59611473271412       -2.30622196041318
C            2.72238975686275        0.02780285143415        0.00291672076640
C            4.15221726611688        0.03846072588206        0.00333672757927
C            4.90967875428443        1.06884710220336        0.62398245396584
F            4.26125305160579        2.13034033066289        1.15157912882709
C            6.28377886388013        1.08136076234511        0.62877167623227
F            6.94861616380376        2.10141188655278        1.20862694673860
C            7.00631649055206        0.05913073223004        0.00432782920496
F            8.35795631824461        0.06882485883248        0.00491191510640
C            6.29909392695695       -0.97335557417425       -0.62077968023784
F            6.97902833624602       -1.98371753085022       -1.20009646357201
C            4.92496363883461       -0.98076407278920       -0.61690828810025
F            4.29238096982184       -2.05149758520978       -1.14503714673771
C            1.95102560680407        0.38457642421185        1.14863245346508
F            2.58547740269656        0.65086338067324        2.31167660534005
C            0.58297861626076        0.37490060395188        1.14670165749259
F           -0.10626067072433        0.68262021141892        2.26754570735019
H           -4.23238631706946        4.99931724248320       -2.59536241382979
H           -2.83495455541691        5.79193258981305       -1.86963441940840
H           -4.39887717812677        6.60028132600164       -1.86943691000880
H           -2.69965334288202        6.06475457257239        0.66157132176177
H           -4.27038137012252        6.85787659598721        0.67626210042330
H           -3.99025137026607        5.43511927420204        1.68342070443466
H           -6.22151484551603        5.89696009448724       -0.39600666544088
H           -6.20306421429326        4.31002561933636       -1.14774414944023
H           -6.10206300139159        4.46825786401488        0.61966649302217
H           -1.59415918763214        4.47923804053357       -0.48550279902480
H           -0.45024741609527        2.35852076068316       -0.31996623117204
H           -5.35366801809606        2.48045672307641       -0.18354900961914
H           -5.98911940299897        0.73720435591899       -1.38037925848870
H           -4.73047318784671       -0.22423852765189       -2.15818940163383
H           -6.00094400640605       -1.01540279738526       -1.22325562690095
H           -6.03326677033607        0.92088522444968        1.18649181572328
H           -5.99212068970079       -0.83106804798287        1.34303107556335
H           -4.76048115004705        0.15197983279327        2.13674486514275
H           -5.30956791743783       -2.56212048099192        0.16293976954778
H           -6.11738311069870       -5.99329773098518        0.37404440817532
H           -6.01741045489031       -4.56320112051658       -0.64174119721229
H           -6.13179093827828       -4.40594302505394        1.12496265348180
H           -4.29039498003915       -6.66560433655047        1.85614189493410
H           -2.74239129307490       -5.82736466075520        1.86834925423399
H           -4.16000835649581       -5.06268754273700        2.58503105544725
H           -3.88129969189399       -5.48960824089975       -1.69257431922989
H           -4.14287172257709       -6.91800187424148       -0.68842882587502
H           -2.58645350869964       -6.09743750449344       -0.66289876737259
H           -1.51680816860728       -4.49234153004254        0.49492442092824
H           -0.41023336952630       -2.35151835240212        0.33393799232673
