  32
  -55.1838524791000        1.00000000000000      !
 C          4.9860371846       -0.7042133791       -0.0088717138
 C          4.9860748492        0.7042627807        0.0084449982
 C          3.8145630165        1.4049631628        0.0164687127
 C          2.5837888474        0.7139169772        0.0071588357
 N          1.4318385136        1.3998658509        0.0097630385
 C          0.3049158427        0.7149258771        0.0029593180
 C         -0.9520678538        1.4298976718        0.0002564740
 C         -0.9943168506        2.8277002678       -0.0034798988
 C         -2.2184404528        3.4590036072       -0.0077227258
 C         -3.3676933982        2.6670832545       -0.0068992503
 N         -3.3490586136        1.3550877113       -0.0031620223
 C         -2.1734997052        0.7276111969       -0.0001903175
 C         -2.1735637123       -0.7275458345        0.0024470552
 N         -3.3491571461       -1.3549743199        0.0056469241
 C         -3.3678101348       -2.6669742068        0.0065345155
 C         -2.2186111088       -3.4589637744        0.0040704709
 C         -0.9944513260       -2.8277016975        0.0006596307
 C         -0.9521675223       -1.4298927441        0.0001297422
 C          0.3048637120       -0.7149775951       -0.0021650909
 N          1.4318160518       -1.3999052453       -0.0086891641
 C          2.5837920484       -0.7140092680       -0.0064978170
 C          3.8145486431       -1.4051927351       -0.0165350181
 H          5.9306160662       -1.2274362997       -0.0159968488
 H          5.9308602249        1.2278547983        0.0166300506
 H          3.7926630908        2.4834719364        0.0295540372
 H         -0.0637923847        3.3744915542       -0.0044369761
 H         -2.2936353113        4.5353379779       -0.0125958789
 H         -4.3518985697        3.1175944960       -0.0106915452
 H         -4.3521029490       -3.1174503641        0.0107354628
 H         -2.2938072388       -4.5352928949        0.0060393505
 H         -0.0639736103       -3.3745502742       -0.0002943727
 H          3.7926446920       -2.4837808836       -0.0298834794
