114
 energy: -174.504853091889 gnorm: 0.000072320075 xtb: 6.7.1 (edcfbbe)
C           10.86156336520813        0.35869042426388        0.27963250403873
C            9.37086928009818        0.30413616484657        0.10698118501029
C            8.80056856311227       -0.38918779251936       -0.96492227933856
C            9.61974176260466       -1.03562086822550       -2.00905390475004
C           10.53502997012961       -0.31263767912920       -2.76762274458459
C           11.27041299359226       -0.93547419336149       -3.75953949167086
C           11.10476496202112       -2.28848154070086       -4.00377389047654
C           10.19058229339557       -3.01439864518331       -3.25830209417141
C            9.44801803532066       -2.39198372276335       -2.27177102744030
C            7.41939890103184       -0.50512872909366       -1.06808410645534
C            6.59824977136480        0.06016094504992       -0.11005243805293
N            5.18094618562362       -0.08204484791066       -0.21296800432397
C            4.67413973824826       -1.37374672177977       -0.16624038005676
O            5.41982356662980       -2.33390052814902       -0.03509177942257
C            3.22572528074382       -1.49896397212379       -0.27517594456446
C            2.65195607138989       -2.78194950293448       -0.29025595035416
C            1.29469343336143       -2.91781154640524       -0.44217942790911
C            0.47210936081336       -1.79244558453003       -0.54039465822448
C            0.99426152489014       -0.49985441575680       -0.45201570089665
C            0.18279160150485        0.68120440327386       -0.52409977315112
C           -1.23962720741493        0.64791949775219       -0.35426672677151
C           -1.85845805607746       -0.24156028114500        0.55273763763683
C           -3.21658371823324       -0.26996825446847        0.71765033458185
C           -4.04754900655209        0.58792302423765       -0.02221952616676
N           -5.42692212554444        0.53398056647077        0.12021840715296
C           -6.19224035916769        1.69677283296786        0.00457039986280
C           -7.44654089622542        1.66128731369072       -0.60835939149120
C           -8.19748188330374        2.81067371822515       -0.72193310992745
C           -7.72437773169769        4.03148371243295       -0.23857828630122
C           -8.52456775238676        5.25455124600928       -0.36931979610787
C           -9.90420500950766        5.22651789754001       -0.17262074089110
C          -10.65556839562784        6.38013275681439       -0.29369101769820
C          -10.04398355824095        7.57923703197118       -0.61997303819863
C           -8.67417535447556        7.61836315736467       -0.82107028180015
C           -7.91944465807073        6.46766569094391       -0.69366413781542
C           -6.46982910135980        4.05848460429678        0.37226069871387
C           -5.71499653177825        2.91293104184707        0.49801836043974
C           -6.05137900647900       -0.68739287649124        0.38422110626651
C           -7.15582567118275       -0.74264846098708        1.24042416594152
C           -7.77263894473829       -1.94492798171016        1.52333599280411
C           -7.27808646475539       -3.10795956767321        0.95031519430531
C           -6.17023866013948       -3.05577555345817        0.08697681824089
C           -5.56075765742172       -1.86094770510209       -0.20306074457290
C           -5.81296360090038       -4.43751617128660       -0.41029325332334
C           -5.94443733206413       -4.53092118692644       -1.93354664451591
C           -4.39823076473173       -4.82677944925595        0.03057241944409
C           -6.85706186363892       -5.28492734813901        0.28191612344203
C           -7.04359700826609       -6.64855582850777        0.21936026324728
C           -8.08139698916261       -7.21633598999545        0.94710324042356
C           -8.91862229836333       -6.43007473740462        1.72450630325631
C           -8.73915523708799       -5.05883970446550        1.79400128343041
C           -7.70391881068294       -4.48873444125677        1.06939887581091
C           -3.44684944270718        1.50091076515491       -0.90315936159933
C           -2.08591194586731        1.53831462322522       -1.05201653674022
C            0.82887839858719        1.93962380689139       -0.69190085868458
C            2.18213889539106        2.06301216134569       -0.63119992602765
C            3.00114592589845        0.91992134034934       -0.44761155759364
C            2.41011949482962       -0.35755422183016       -0.37754543536787
C            4.43905055239648        1.08593375485188       -0.37024410350726
O            4.99648791719854        2.17431167906733       -0.43450743336659
C            7.14969459409127        0.75371204932080        0.95247573673651
C            8.52836198032989        0.88808574468022        1.05744373371373
C            9.06193545318035        1.63970782152483        2.21206032130796
C            8.75704199023099        1.23037112986675        3.50639183768879
C            9.23440390357734        1.93480223461761        4.59663655855686
C           10.01275719203933        3.06434993041458        4.40771484732038
C           10.30932652685366        3.48700011547027        3.12275216916990
C            9.83968888450912        2.77877287039020        2.03182095343255
H           11.12012476540239        0.39665528951590        1.33582728453956
H           11.32992376532555       -0.51401172237723       -0.17011239406803
H           11.27881991818991        1.24556320852508       -0.19639231357743
H           10.65395429403891        0.74609526888118       -2.59102111186027
H           11.97487232468355       -0.36295781573176       -4.34596098786506
H           11.68337013675956       -2.77457683837681       -4.77590847265927
H           10.05496255104157       -4.06940912220735       -3.44845333204550
H            8.73489601663677       -2.95465793458330       -1.68700011848128
H            6.98766680014561       -1.04052946680590       -1.90007069941610
H            3.30769080373247       -3.63352341086119       -0.20011745034678
H            0.84888327627410       -3.90071168253991       -0.48951424693301
H           -0.58351624311360       -1.93023857683551       -0.72013992561704
H           -1.23659078875620       -0.86711968504654        1.17481988096027
H           -3.66123927505052       -0.93420071819136        1.44455918647292
H           -7.81606867805865        0.72798877828828       -1.00723735204884
H           -9.15413528924949        2.77071073146147       -1.22081679860793
H          -10.38512161666814        4.29838617071537        0.10021865451129
H          -11.72291074717354        6.34479590176917       -0.13126659936569
H          -10.63235304204509        8.47934668252774       -0.71711495418485
H           -8.19257023829018        8.54985502655796       -1.08008830587719
H           -6.85422654380355        6.50173464635739       -0.87005441062799
H           -6.09644996190485        4.98565085072297        0.78027013039026
H           -4.75645461711464        2.94429852647491        0.99471375636594
H           -7.51254692356426        0.16957497943717        1.69555271925817
H           -8.61876982034353       -1.97552276663557        2.19253973335263
H           -4.72114878089872       -1.80764253771576       -0.88019767636997
H           -5.23181719842729       -3.86642121868688       -2.41642506171071
H           -6.94892229235540       -4.24989923837458       -2.24305508558181
H           -5.75129649372030       -5.54789141731328       -2.26565586475975
H           -4.17637766263547       -5.84644124872131       -0.27413804583740
H           -3.66524054304019       -4.16152639543114       -0.41998733517335
H           -4.30937061864737       -4.76137766757211        1.11297376038213
H           -6.39834561315603       -7.27176224295956       -0.38227657389637
H           -8.23855175733095       -8.28406642963124        0.90721113302399
H           -9.71902990005237       -6.89406685472034        2.28183408042987
H           -9.39118966523601       -4.44778546129926        2.40012470104197
H           -4.07424682996481        2.15503431672383       -1.49121091878036
H           -1.65589664137247        2.21907727161603       -1.77020552222760
H            0.21673578124165        2.82412898285461       -0.78500031494054
H            2.67189184714507        3.02104819888403       -0.70756997855860
H            6.50873947825251        1.20465155469732        1.69489278511664
H            8.15233194316691        0.34656480034771        3.65165453939452
H            8.99742388838831        1.60283094114018        5.59738641073072
H           10.38393096386112        3.61581539684145        5.25935294611784
H           10.90826010367057        4.37353152834262        2.97079068839475
H           10.05875411504915        3.11859127988256        1.03050826065090
