114
 energy: -174.571240751518 gnorm: 0.000030710033 xtb: 6.7.1 (edcfbbe)
C           10.91851773429868        0.35301114882635        0.19631826617484
C            9.42080499672652        0.31749606139271        0.09913000022923
C            8.79178705013885       -0.14219441730724       -1.06132927066828
C            9.55246575300745       -0.55180663031345       -2.25895281542680
C           10.41754663855021        0.32484627026691       -2.90567791391113
C           11.09807298900040       -0.07358453047731       -4.04189826091029
C           10.92699862424838       -1.35291576187840       -4.54348904801236
C           10.06256350391546       -2.22985321943710       -3.90959962624989
C            9.37454154082059       -1.83085590482585       -2.77833673858707
C            7.40662546425671       -0.24568683535481       -1.11238843529083
C            6.64286248346292        0.09897835464818       -0.01338864382120
N            5.21645057872105       -0.02866372105670       -0.06898757291261
C            4.71130808253282       -1.30982892087765       -0.23644489444789
O            5.45196661914411       -2.26857877024386       -0.30995351041345
C            3.24470116335320       -1.42491427192410       -0.30527672017967
C            2.67440321739471       -2.66443058537855       -0.50569912343470
C            1.28788335271420       -2.79019964194247       -0.60193450222380
C            0.47773121001618       -1.69189649755091       -0.46428713836894
C            1.01809166160996       -0.41335108275278       -0.21507407383676
C            0.21504770060338        0.75135841848467       -0.05476406776953
C           -1.24860044733093        0.67254570413212       -0.00726925706167
C           -1.89990996831090       -0.20869861122648        0.85696293803630
C           -3.27521990702709       -0.25496627177474        0.91737409324240
C           -4.05162076772620        0.57306598896933        0.10198933014714
N           -5.44068682959524        0.51163048513974        0.14705797407748
C           -6.20715547420441        1.66666152391569       -0.04966105096730
C           -7.40792663826066        1.60735875940535       -0.75611973656174
C           -8.16588152401198        2.74437515024635       -0.93984530748235
C           -7.74792304420328        3.97661103223275       -0.43957213870315
C           -8.55342002738485        5.18728181213424       -0.64564897582659
C           -9.94212890013210        5.14417280081369       -0.54045439929909
C          -10.69883770645230        6.28479732867389       -0.73237381860767
C          -10.08263637516549        7.48694259963240       -1.03725382013915
C           -8.70320400005363        7.54139043769425       -1.14670710704825
C           -7.94440362435893        6.40289650867921       -0.95052613551844
C           -6.54481590151821        4.02887142416255        0.26264673402315
C           -5.78803400041025        2.89398257870990        0.46322342706456
C           -6.08072049213262       -0.71210953060937        0.38916173023944
C           -7.22517928226623       -0.75974826068254        1.18640979018664
C           -7.86856358818710       -1.95773480445993        1.43422760541064
C           -7.35514395063212       -3.12301113550132        0.88759247354867
C           -6.20402931489968       -3.07899201716133        0.08639665446228
C           -5.57086893894490       -1.88723054787976       -0.17149460082525
C           -5.83177505930724       -4.46309354481320       -0.39450898485854
C           -5.87986038832454       -4.55176098096438       -1.92277548270201
C           -4.44741932088588       -4.86669666797078        0.12256611119476
C           -6.91989592225905       -5.30361719776755        0.23614299926948
C           -7.11562975204546       -6.66499213078685        0.15604920873231
C           -8.19640088344005       -7.22682707212304        0.82331724423896
C           -9.06610081613978       -6.43570598730678        1.55753762959289
C           -8.87712707346090       -5.06595745237053        1.64319769996355
C           -7.79978714170710       -4.50249126433821        0.97943468989659
C           -3.40210640966771        1.46219244404826       -0.75833590652327
C           -2.02631250817259        1.51618969674799       -0.80011016210368
C            0.82727536061380        1.98411221484585        0.07148628475165
C            2.21262101135685        2.10863949042529        0.09422221582483
C            3.01682912737032        0.99074073289506       -0.00666691531867
C            2.43069516006462       -0.28067087491388       -0.17072776607048
C            4.47751318189548        1.14375731451525        0.03828452731250
O            5.02898549709391        2.21877086940341        0.15010806683712
C            7.25086241695390        0.55876289635697        1.13997335686768
C            8.63374101802776        0.68155300145849        1.19542219600889
C            9.23162131629161        1.18318179097611        2.45002792895078
C            9.00272890365719        0.50914722848584        3.64532741533972
C            9.54121046942264        0.97813798527217        4.82979597689433
C           10.30476685892796        2.13324365875235        4.83677207967457
C           10.52560260531364        2.81815248433654        3.65361162747847
C            9.99515777984174        2.34569876391427        2.46713865755995
H           11.23663789157093        0.17535961985851        1.22141413908131
H           11.36053761158662       -0.40217703511620       -0.44973447788211
H           11.30734806630243        1.32392150690282       -0.10872505470990
H           10.54064977439636        1.32825075278985       -2.52588888330445
H           11.76399640722932        0.61704762348542       -4.53903836687688
H           11.46297446749674       -1.66416983702604       -5.42823434507620
H            9.92310902788730       -3.22774441075087       -4.29966072595514
H            8.70103828025583       -2.51267808181530       -2.27951277848980
H            6.92918526789669       -0.59887782541880       -2.01403134236377
H            3.32093116823317       -3.52340219687721       -0.60343970784545
H            0.85461510700149       -3.76068508744733       -0.79230801083033
H           -0.59199985470640       -1.79666854492304       -0.56398408866602
H           -1.31692266237121       -0.83464231293923        1.51692824837064
H           -3.76314640504219       -0.92875160994283        1.60603949438059
H           -7.73774032092649        0.66278177587762       -1.16346353634401
H           -9.08308343052250        2.68324743930984       -1.50677051778744
H          -10.42796427349765        4.21345171661618       -0.28540524351738
H          -11.77439780899457        6.23704253904343       -0.64150128575540
H          -10.67471198015824        8.37731148819292       -1.18883692018539
H           -8.21705417980063        8.47550784523403       -1.38845826959249
H           -6.86998397163775        6.44870376225280       -1.05484470854410
H           -6.21420080726247        4.96691539394474        0.68365487643201
H           -4.86811588977128        2.94797430398701        1.02714666258765
H           -7.60330392863877        0.15660882861301        1.61552083318071
H           -8.75131860533075       -1.98014396737696        2.05519602870192
H           -4.69268050630809       -1.84210459828635       -0.79920866781074
H           -5.13757317841944       -3.89048518420469       -2.36398006076818
H           -6.86384828626285       -4.26146148945300       -2.28491860187990
H           -5.67701631463319       -5.56931825829486       -2.24813065656748
H           -4.21596415763450       -5.88665872092924       -0.17488912523181
H           -3.68540861247421       -4.20389780899751       -0.28167027191664
H           -4.42003951907701       -4.80742199094696        1.20867339623539
H           -6.44448513506108       -7.29158086914590       -0.41350932208974
H           -8.36125248494401       -8.29301613818720        0.76931567686471
H           -9.90061459854834       -6.89375670348362        2.06835659620857
H           -9.55606179615968       -4.45148506124122        2.21567642589475
H           -3.98817624156795        2.10343361639431       -1.39978499574237
H           -1.54003242929636        2.19667078885307       -1.48359527054671
H            0.21419464234332        2.86602731201165        0.18580261374542
H            2.68106136017437        3.07482582980415        0.20675400158616
H            6.65313796176576        0.83752527814468        1.99474201455160
H            8.40968520896718       -0.39428610017924        3.63707787191956
H            9.36340154608544        0.44196582649272        5.75090851162482
H           10.72349063940736        2.50065829941522        5.76223999574809
H           11.11293967098817        3.72503878292624        3.65621272278810
H           10.15546674735281        2.88905189837964        1.54782501872221
