105
 energy: -145.944574271373 gnorm: 0.000044956382 xtb: 6.7.1 (edcfbbe)
C           -7.61671580825929        0.28001336048049       -0.93184731331200
C           -6.48737550154723        0.49450502047858        0.06991516318419
C           -6.50063369883862        1.91353235599572        0.63554107733765
C           -5.43644085270933        2.14632831518145        1.70994336115388
C           -3.99630248055061        2.20462385224278        1.19292729802229
C           -3.69892209913635        3.47742088624669        0.40085509808531
C           -2.23895134951277        3.58100173723618       -0.04140488416930
C           -1.29134425751004        3.87452177754134        1.12952672457562
N            0.06417889480492        4.05878333494867        0.69094802869314
C            0.65365410189742        5.26595415530669        0.37912436531110
C            0.11478145120876        6.53983093561206        0.38939619302340
C            0.94524169388144        7.60165955156442        0.03558710703003
C            2.27280141644050        7.38890384271534       -0.31675949408489
C            2.81970910782685        6.11516393574470       -0.33278681752495
C            2.00851247568566        5.03727699960095        0.01566157969325
C            2.22107178109207        3.62562575829830        0.10642527008824
C            3.32150441640586        2.80441936413402       -0.10190884558910
C            3.17349972068447        1.41709066348284        0.07666046950365
N            4.29110352654908        0.63085308196808       -0.11201462421274
C            4.44105409488671       -0.72205879372731       -0.17187692960963
N            3.39568053436915       -1.53069909270952       -0.25998285600636
C            3.69047203821347       -2.82010632763780       -0.31542282592090
N            2.71203509694474       -3.76307316306034       -0.41505058000521
C            1.36363035969068       -3.63659963357889       -0.67153717224150
C            0.56083774670709       -4.78258853190685       -0.50515610533585
C           -0.80615302908155       -4.74761045413203       -0.73022421123985
C           -1.37717412169595       -3.54713180783792       -1.14212161179185
C           -0.56684189151856       -2.39243195510854       -1.35554108542197
C            0.80038192835871       -2.43431816576425       -1.11404435865393
C           -1.44273780488983       -1.35971478131235       -1.81038006160416
C           -1.25122730768810       -0.03243889754685       -2.19212572483857
C           -2.35276987032609        0.69745605374521       -2.61317761810103
C           -3.62335264369938        0.13653254063678       -2.64849066462408
C           -3.84014736275640       -1.18583589754793       -2.25914178865383
C           -2.74614538636525       -1.92258812396171       -1.84451222472066
N           -2.67805246823533       -3.23957411365342       -1.43171933883820
C           -3.82257454432261       -4.06884653965341       -1.17896083203833
C           -4.52406140032750       -3.72588472480335        0.14725417808640
C           -3.61195090543114       -3.88296331249556        1.36913440240713
C           -2.83421069998817       -2.60765149621289        1.70896901820698
C           -1.59939374329195       -2.89429126236823        2.56121765048074
C           -0.76483658172913       -1.63366123997366        2.77719080544832
C            0.46469465465083       -1.85772558690352        3.65831420351852
C            1.52861229340222       -2.72320988729566        2.99134798448284
N            4.93519474644753       -3.34529223253139       -0.24675215765202
C            5.89535171759946       -2.43380304402818       -0.18833822362716
O            7.13441595806770       -2.93644298085485       -0.15122410227918
C            8.19905121125597       -2.00209480852204       -0.09420079462758
N            5.73709767708693       -1.12186622049466       -0.16641070829985
C            1.93693130572166        0.87529184543530        0.46229942062364
C            0.83671925314024        1.68533766123445        0.68568144258989
C            0.97844534220161        3.05898761028499        0.51358060302652
H           -7.60015187083447       -0.73543963121352       -1.32177751564443
H           -7.52271111323099        0.97038955665275       -1.76779198509862
H           -8.58339415940319        0.44789080401988       -0.46035223012607
H           -6.59456261839021       -0.21825654557174        0.89164086689100
H           -5.53145509714591        0.30066382960380       -0.41941614815399
H           -6.37155817246815        2.62935408646714       -0.17786320078688
H           -7.48262235947470        2.10018231826513        1.07919246095601
H           -5.65627207286782        3.08492861725165        2.22555519809744
H           -5.51181506246461        1.34402532739063        2.44862148318879
H           -3.78735951542464        1.33555525552201        0.56745605447680
H           -3.33181843252934        2.15655824860017        2.05771065186306
H           -4.32599715543137        3.49828570871388       -0.49127238682620
H           -3.95644691755366        4.35033378850304        1.00577878601701
H           -1.93451110844940        2.65023800524574       -0.52361010355448
H           -2.13883821757563        4.38733555127492       -0.77181216742646
H           -1.61326038256509        4.78285522381291        1.64489705508980
H           -1.30796655545351        3.04782683919747        1.84303078213173
H           -0.91490230163584        6.72084151353044        0.65622010455069
H            0.54788742568093        8.60541575404588        0.03522445747332
H            2.88956328525236        8.23453434903260       -0.58518877891141
H            3.85112403517566        5.95844204519742       -0.61000664881777
H            4.27531329420367        3.21566127209793       -0.39684872627359
H            5.17420816515534        1.11174106342255       -0.19127482540541
H            3.07888024259277       -4.69480152257607       -0.29992444005277
H            1.02727714051452       -5.70284992709376       -0.18474249547684
H           -1.39275164782928       -5.64165989927575       -0.58857004492689
H            1.42271778856759       -1.57160335878260       -1.26844777996638
H           -0.26648925343596        0.40925751590024       -2.15960322697127
H           -2.22049795252859        1.72278008222424       -2.92743956805910
H           -4.45868522896991        0.73074147854982       -2.98563556651804
H           -4.83167802285294       -1.60847537803909       -2.29492572777183
H           -3.49616066289473       -5.11034318661689       -1.16096091597986
H           -4.53118158293490       -3.94523353387308       -2.00376090087534
H           -5.38064603452903       -4.39592070713141        0.23643687083771
H           -4.89877469998411       -2.70261885245733        0.10410436187338
H           -2.90576941147138       -4.69512111816265        1.18781658047292
H           -4.21307782775025       -4.16793549614504        2.23487205807874
H           -3.49053814192371       -1.91188013378115        2.23681994979964
H           -2.50577753355214       -2.11149135323508        0.79676813881282
H           -1.90165785758477       -3.30462767573782        3.52785293285397
H           -0.99025443538262       -3.64345144851502        2.05185949137557
H           -1.39359202728732       -0.87017934038513        3.24258002995948
H           -0.43839828250740       -1.25453833043803        1.80561441194522
H            0.90583602473331       -0.88657995823574        3.89698068660508
H            0.15852307152093       -2.32262902515297        4.59858172871393
H            1.16194236809255       -3.73185691084598        2.81804107997848
H            1.82186849359722       -2.29860166499937        2.03256497330320
H            2.41533359969360       -2.78897417363256        3.61984284664751
H            9.10882894668059       -2.59759708135229       -0.06281646379603
H            8.11769570406337       -1.37799634587299        0.79862255002488
H            8.19376558056151       -1.35702655541117       -0.97582717636281
H            1.86128926285283       -0.18933837376722        0.59179620122192
H           -0.10075444551540        1.24608927751615        0.98486907680272
