105
 energy: -145.944549335683 gnorm: 0.000049545133 xtb: 6.7.1 (edcfbbe)
C           -7.46273219684212        0.77442250229613       -0.94428331435079
C           -6.36207214291612        0.97777366012091        0.09098693871689
C           -6.27806277853221        2.43418685796249        0.54443223596555
C           -5.22667033039008        2.66780959235576        1.63139748803353
C           -3.77507631122684        2.60325286266488        1.14779410461372
C           -3.37255060178961        3.81954162185641        0.31437062804103
C           -1.91146977122438        3.78334408676835       -0.13443333670696
C           -0.93433282316039        4.01786658478779        1.02540502743625
N            0.42941297979217        4.06798454892202        0.57635299565337
C            1.11931096927737        5.20834700375253        0.22209267002613
C            0.69367018991716        6.52418615837010        0.19386761612285
C            1.61060210826130        7.49732350256361       -0.19906777436079
C            2.91156497619350        7.15818063632241       -0.55167827710363
C            3.34526263831773        5.84173551592065       -0.52896869225044
C            2.44603050879632        4.85069726216395       -0.14095514990707
C            2.53524555403669        3.42935176920147       -0.00607991572015
C            3.55839070985048        2.50910224359541       -0.19338343187059
C            3.29175488755174        1.14646112140604        0.03082798435580
N            4.33498744157880        0.25987971308467       -0.13901885264242
C            4.36438748283312       -1.10207913044058       -0.16281044101669
N            3.25102567893869       -1.81677007126760       -0.22617684067704
C            3.43011439833642       -3.12819588380264       -0.24903071124005
N            2.37103354735860       -3.98283864094008       -0.31936805390265
C            1.03851168897273       -3.74637388764222       -0.58048576122106
C            0.14134116219105       -4.81690215754823       -0.39385387078630
C           -1.21712820379259       -4.67187422482344       -0.62572395511951
C           -1.68410720135168       -3.43629769051300       -1.06417368637591
C           -0.77927152329558       -2.35737865514730       -1.29408810364364
C            0.57907027257828       -2.50919697906706       -1.04637872505260
C           -1.56409860428815       -1.26375784074631       -1.77237491304746
C           -1.26140897481140        0.03603305943253       -2.17612361584365
C           -2.29652751992691        0.84677928225667       -2.61761556179956
C           -3.60887070588684        0.39228694080689       -2.65152469798273
C           -3.93657082660178       -0.90022164672216       -2.24011419310515
C           -2.90958325464789       -1.71709605650300       -1.80491847036263
N           -2.95331636184526       -3.02724494067456       -1.36787120253979
C           -4.16438406752078       -3.75528327205058       -1.11326587384525
C           -4.84864269560662       -3.33176407486003        0.19859773684393
C           -3.96403765649429       -3.53943234035214        1.43305550082883
C           -3.08937573901954       -2.32445908595210        1.75765504036499
C           -1.88623050787193       -2.69203099138641        2.62376865973863
C           -0.95941883187491       -1.49522626923765        2.82660069659731
C            0.24128582493180       -1.79681425044148        3.72403686061233
C            1.23183229252976       -2.76734439849451        3.08964168166793
N            4.62395287984917       -3.75997228211317       -0.17231917086952
C            5.66126107319193       -2.93601222583119       -0.13957498665547
O            6.85129953164035       -3.54514036080548       -0.09328550878420
C            7.99395499143420       -2.70666687354103       -0.06086196275948
N            5.61990828223891       -1.61503829172497       -0.15019479089224
C            2.01616626973275        0.72721197191096        0.44131836722486
C            0.99248760692828        1.63689139556434        0.64444693659735
C            1.25144104414756        2.98676433515696        0.42638205976625
H           -7.52343752212628       -0.26966942893302       -1.24365234257173
H           -7.27001458910538        1.37504989578666       -1.83094701072961
H           -8.42889958566274        1.06862170211906       -0.53843657178537
H           -6.56348809662122        0.34511952549415        0.95928326685596
H           -5.40660403852444        0.66839328366859       -0.33599886369396
H           -6.06995530968465        3.07048357442604       -0.31720339450053
H           -7.25380076758815        2.73086955841029        0.93897594480663
H           -5.39667193747140        3.64892007718463        2.08249092939378
H           -5.37014001341616        1.91989053928003        2.41561278480424
H           -3.61663798891660        1.69758379198221        0.56059620484696
H           -3.13294426538384        2.54333202415682        2.02857688478031
H           -3.99958758526259        3.86554455216095       -0.57690946281583
H           -3.55217178371571        4.73028439889613        0.89096977019535
H           -1.69335657146635        2.81839365373092       -0.59573892950982
H           -1.74458865661796        4.56060430854763       -0.88395199752195
H           -1.16950104668099        4.96371844489990        1.51985697558954
H           -1.02110426876267        3.21321905851072        1.75857995386052
H           -0.31389015592914        6.80315354707978        0.46062516023188
H            1.30260512284412        8.53150790230095       -0.22974093581104
H            3.59704056788135        7.93793404363663       -0.85097459197289
H            4.35675965392267        5.58658808344641       -0.80661105248646
H            4.54188959267542        2.82607870294900       -0.50663232318742
H            5.25646023109913        0.65859406643523       -0.23551440541004
H            2.65472137746025       -4.94031849151525       -0.18280290945580
H            0.52784337891927       -5.76666833494430       -0.05371658776891
H           -1.87729188445596       -5.51034137399435       -0.46900864440343
H            1.27208586684418       -1.70489183928214       -1.21436705076255
H           -0.24357001520563        0.39512001933964       -2.14501788116359
H           -2.07800936318113        1.85184330372819       -2.94896075682471
H           -4.39083894683435        1.04670519821818       -3.00446266621819
H           -4.95957858492143       -1.23953554514385       -2.27501437952564
H           -3.92473936115504       -4.81949801532323       -1.07333088650295
H           -4.85238765671130       -3.58928804067080       -1.94804164946359
H           -5.75775998900524       -3.92820185407356        0.29004323138084
H           -5.13828932308908       -2.28236010859543        0.13337122153882
H           -3.32416808336008       -4.40917873324706        1.27410472209365
H           -4.59438659549741       -3.75875917933856        2.29710328646041
H           -3.69145087225009       -1.56975514933807        2.26883424232793
H           -2.71685526375524       -1.87207904446928        0.83961448830881
H           -2.22541616409516       -3.06276703978767        3.59414208681545
H           -1.33310506997320       -3.49363350833773        2.13052377388986
H           -1.53210153602020       -0.67749615298817        3.27189871054256
H           -0.59627695668333       -1.15991278917687        1.85188736002571
H            0.76107097097274       -0.85972615683026        3.93987720724220
H           -0.10867922152661       -2.20798959184400        4.67398166921589
H            0.78414921603765       -3.74771479050159        2.94743874529048
H            1.56017458877292       -2.39935014498849        2.11881010969213
H            2.10938472300260       -2.88515475648096        3.72332971090142
H            8.84835644593228       -3.37862862218579       -0.01909921050442
H            7.97207135215728       -2.05827886218190        0.81803846101471
H            8.04031334746555       -2.08301506870431       -0.95656534951077
H            1.84954570495834       -0.32215288209123        0.60606416152129
H            0.02309143129292        1.29069786408048        0.96363416766001
