105
 energy: -146.047582086222 gnorm: 0.000058043928 xtb: 6.7.1 (edcfbbe)
C           10.95485948098850       -3.20927082740906       -5.02391207177364
C           10.07025318459637       -2.86040627724759       -3.83212590205946
C           10.86206702916387       -2.18545889518181       -2.71375295453989
C            9.98372171365029       -1.82276662905718       -1.51750580919958
C           10.79107441090668       -1.14802362790688       -0.40978658831362
C            9.97647710956339       -0.85241086457073        0.85048576088504
C            8.89644667884666        0.20597288886438        0.63559651559201
C            8.24849926151873        0.62051834251526        1.96184915014601
N            7.23621331315312        1.62589020019735        1.77286399308900
C            7.47103044092119        2.97363567874812        1.64660600312929
C            8.66461156613173        3.67900966717872        1.73947398491554
C            8.62070915881773        5.05062100647822        1.58327463544344
C            7.42170283462867        5.71868166102433        1.33788179597986
C            6.23126581597423        5.02640066384898        1.24328719403023
C            6.24926088152644        3.64540295619738        1.39661175202671
C            5.23483630933046        2.63160088575604        1.36006008725692
C            3.86291249669555        2.66417891770189        1.16095093141844
C            3.14916080370303        1.47247133005067        1.19483699480365
N            1.76814515964928        1.54901202979336        0.99055664534758
C            0.78900356569664        0.62618703208350        1.07719786211780
N           -0.43425935945057        1.11160761194617        0.84349004283321
C           -1.42418444614847        0.22349236191341        0.94163253613320
N           -2.64722632596804        0.73381737297997        0.69287962091871
C           -3.92027630245703        0.15599311951877        0.69743515338375
C           -4.98327735459578        0.96792973026768        0.27318906762146
C           -6.28157221334201        0.50517152660041        0.24288972166785
C           -6.52596561112278       -0.79971746759021        0.65134863347332
C           -5.45840838578128       -1.62566349636792        1.08145384877092
C           -4.15537468696369       -1.14807161210193        1.10445864562416
C           -6.04411257566058       -2.88944468895733        1.42551782981250
C           -5.52508524016655       -4.08706257568442        1.90219487677290
C           -6.38967016867881       -5.13829929080110        2.13130746877343
C           -7.75666348532215       -5.00702758723600        1.88940280623699
C           -8.29648916555187       -3.82752151907985        1.41527128654370
C           -7.43440359319217       -2.76245751311367        1.18462303495991
N           -7.70768001346296       -1.49277429476054        0.73565720772468
C           -8.99650815447812       -1.01174099248962        0.31053955177970
C           -9.25623161519094       -1.32765589804671       -1.16826405212532
C          -10.62138978349863       -0.82344839508569       -1.65722314852918
C          -10.55902357077354        0.48321564421639       -2.45165024459746
C          -10.10542751014353        1.69011498471363       -1.63334508553803
C          -10.14999334864654        2.97568053713636       -2.45864230273189
C           -9.81631694734386        4.23234841759320       -1.65203209109050
C           -8.37582204372852        4.26934422672085       -1.15140242156255
N           -1.26321758787024       -1.06689953767695        1.25388015665742
C           -0.00468547934547       -1.42887067219119        1.44667335383643
O            0.26294873446049       -2.69865117205078        1.74696255189077
C           -0.84367244799999       -3.58055008977317        1.85128462490319
N            1.06088100379839       -0.64616218260857        1.37313342456917
C            3.80869556272172        0.25777642186814        1.41660011101956
C            5.17431999107008        0.21083188462732        1.61116440335069
C            5.89446706756923        1.39838618871068        1.58850105945272
H           11.75135388758861       -3.88687352304934       -4.72259708665633
H           11.40901874186705       -2.31089983535533       -5.43747061020330
H           10.37218149822486       -3.69063679145742       -5.80648123654615
H            9.26771856751464       -2.19440564272672       -4.15908012316637
H            9.60601598313697       -3.77147001491310       -3.44637850842704
H           11.66152889111689       -2.85493972421214       -2.38608872273999
H           11.33118777549145       -1.27847454771312       -3.10351969281266
H            9.18615378377978       -1.15728552096747       -1.85286522506616
H            9.51775010854304       -2.72971036939553       -1.12413263291576
H           11.21563131984382       -0.21610665195647       -0.79068868590810
H           11.62374690576802       -1.80175685142468       -0.13778567146563
H            9.51461462125250       -1.77542921438194        1.20792790773275
H           10.65971764181993       -0.50221325240170        1.62848119805807
H            9.33601486950015        1.08860299474157        0.16588033955174
H            8.11965666042770       -0.17475258122604       -0.02914924975613
H            7.78976701669083       -0.24761974785562        2.44081673048972
H            9.00978508814137        1.01808373459362        2.63949459323536
H            9.60222993539963        3.17841226507300        1.92610503346867
H            9.53624907109920        5.62022257263244        1.65050885703974
H            7.42943505357571        6.79244037226136        1.22085301605405
H            5.30221939743391        5.54328460618764        1.05333176650379
H            3.35556883049307        3.60241575262057        0.98586032754410
H            1.40703895918970        2.46821982083917        0.78604771037108
H           -2.60718978267285        1.71095718670782        0.44580666438046
H           -4.77374000417741        1.98167033356301       -0.03908968296281
H           -7.07556376611044        1.15201160134043       -0.09395109651786
H           -3.33607765359295       -1.76531667132763        1.42684426659595
H           -4.46605595191335       -4.18725875010223        2.08745269360244
H           -6.00651419453554       -6.07777337316884        2.50165861544641
H           -8.40756144226521       -5.84873510470657        2.07646283706879
H           -9.35657148511547       -3.74592796172976        1.22993952640626
H           -9.04028985770558        0.06444025385921        0.48677852582439
H           -9.76246153143645       -1.48693271463365        0.92926064080931
H           -9.19532081022769       -2.41099112269732       -1.29212939910002
H           -8.45887916097739       -0.88865664698411       -1.77093836161499
H          -11.28933697975675       -0.69320027699092       -0.80314019645707
H          -11.06687359659299       -1.58156694870111       -2.30436581560783
H          -11.55523321188265        0.68702091133534       -2.85322458753029
H           -9.88533883557372        0.35256578724901       -3.30219174718068
H          -10.75309112571698        1.80052228324700       -0.75990253581913
H           -9.08608617237534        1.52602182714612       -1.28579020962937
H          -11.15304668330389        3.09021331024608       -2.87823111001895
H           -9.45213607653799        2.89054995584236       -3.29564171913061
H           -9.98917812939560        5.10497145569623       -2.28725938817171
H          -10.49684189715905        4.30600138967194       -0.80012607627207
H           -8.20016826444442        3.49905477912470       -0.40481171712719
H           -7.68107808810143        4.11932784702307       -1.97576832175263
H           -8.16102327548916        5.23301347231901       -0.69386209681049
H           -0.41813116595743       -4.55848140265052        2.06545030508638
H           -1.40815510294088       -3.60446700069411        0.91642795826445
H           -1.50731219535406       -3.26859180745236        2.66117129484702
H            3.22125419687612       -0.64424726079417        1.43613422547841
H            5.65679447820013       -0.74024138389909        1.77458982068992
