  171
       -250.31921676
 C          9.7234681482       -4.3158492550        0.4127301730
 C          8.4284992305       -5.0075976885        0.8473624647
 C          8.4727889015       -5.1795667149        2.3720333392
 C          8.3749972760       -6.3864783594        0.1732293882
 C          7.1866101819       -4.2195986108        0.4569046945
 C          5.9258799927       -4.7319085141        0.7869746332
 C          4.7461324542       -4.0990086416        0.4501298681
 C          4.8219181403       -2.9078020625       -0.2548445618
 C          6.0800648683       -2.3518320514       -0.5627898186
 C          7.2502186642       -3.0085218802       -0.2146895597
 C          5.8238460574       -1.0970562466       -1.2153906020
 C          6.6519619931       -0.1207042893       -1.7399415486
 C          6.1041556077        1.0043425962       -2.3436341674
 C          7.0354560834        2.0793136779       -2.8817334609
 C          6.2856071957        3.2189924110       -3.5764373748
 C          7.8242444271        2.6557542091       -1.6967661782
 C          8.0008064015        1.4645130100       -3.9054601481
 C          4.7136289811        1.1091910447       -2.4180478733
 C          3.8639075663        0.1490436900       -1.8999315733
 C          4.4221226877       -0.9515286249       -1.2718528013
 N          3.8228156454       -2.0584035201       -0.6938906566
 C          2.4503726421       -2.2665636282       -0.5805960635
 C          1.8942029622       -3.5121349014       -0.8748027901
 C          0.5311370070       -3.7107580499       -0.7707170105
 C         -0.2968590707       -2.6608137820       -0.3921567557
 N         -1.7044512763       -2.8393007149       -0.2870290203
 C         -2.4740283061       -2.8519478566       -1.4381389471
 C         -1.8656168892       -2.7721213127       -2.6951022355
 C         -2.6209021841       -2.7953559377       -3.8484330625
 C         -4.0006992345       -2.8930238688       -3.7776690222
 C         -4.6110581012       -2.9510364435       -2.5390574545
 C         -3.8688392528       -2.9291340868       -1.3677875399
 C         -4.5984240490       -2.9412644200       -0.0449965446
 C         -5.6127510487       -4.0666694557       -0.0024480872
 C         -5.3799313344       -5.4236012664       -0.0193353546
 C         -6.4700027522       -6.2832357975        0.0159636489
 C         -7.7637118357       -5.7868211222        0.0640887777
 C         -8.0021951937       -4.4218349786        0.0797368241
 C         -6.9189803735       -3.5593738692        0.0469465005
 C         -6.8533621281       -2.1056025258        0.0572717105
 C         -7.8642621270       -1.1569127015        0.0625524708
 C         -7.4853607613        0.1766856890        0.0515565489
 C         -6.1308344770        0.5432484883        0.0662444991
 C         -5.1213623682       -0.3982393843        0.0522718596
 C         -5.5022197031       -1.7248145746        0.0353234314
 C         -5.9836225346        2.0577351885        0.0356893420
 C         -7.4279881467        2.4956123408       -0.0461895126
 C         -7.9259748666        3.7775586210       -0.1252834990
 C         -9.3029021004        3.9518349094       -0.1727356058
 C        -10.1577136936        2.8606141042       -0.1362689000
 C         -9.6608617723        1.5693828103       -0.0555406303
 C         -8.2883091879        1.3884778890       -0.0112029447
 C         -5.1730729072        2.4123514159       -1.1841845721
 C         -5.7633592905        2.3565739012       -2.4363219193
 C         -5.0127330638        2.5068018351       -3.5881608165
 C         -3.6407242464        2.6715284834       -3.4858839738
 C         -3.0360323751        2.7380819977       -2.2487450934
 C         -3.7940741437        2.6475191210       -1.0755092272
 N         -3.2011700869        2.7768757251        0.1683615368
 C         -1.7881283366        2.8352267324        0.2915266949
 C         -1.0490912873        3.9075470270       -0.2196017490
 C          0.3187095054        3.9112034415       -0.1268093075
 C          1.0058041119        2.8414440306        0.4885392804
 C          2.4234154011        2.8206551990        0.5316668315
 N          3.0807684913        1.7507660041        0.9930374655
 C          4.3924659981        1.7694227625        1.0299332415
 C          5.1037778367        0.6257208863        1.5600138460
 C          6.5016197728        0.5959327044        1.5505526459
 C          7.1775573516       -0.4811287013        2.0827790246
 C          6.4788063770       -1.5438934709        2.6353694693
 C          5.0919228905       -1.5247440402        2.6457118465
 C          4.4072246615       -0.4530022296        2.1154922659
 N          5.1192928294        2.8504161036        0.6203002831
 C          4.4213378794        3.9027767019        0.2098429714
 C          5.2082628558        5.1353946001       -0.1595808402
 C          4.3140251976        6.3278167226       -0.4992876420
 C          3.5851188080        6.8577644333        0.7322289679
 C          4.5754372070        7.2132464019        1.8358433669
 C          5.4203427325        5.9957375746        2.1970006998
 C          6.1775403590        5.4909980809        0.9733967858
 N          3.1222520815        3.9285675115        0.1153360016
 C          0.2408402361        1.8073670850        1.0706850521
 C         -1.1254614832        1.8033326378        0.9666439139
 C         -3.9656391148        2.8617497704        1.3189067833
 C         -3.3858828048        3.3022274979        2.5146330708
 C         -4.1332409029        3.3866679737        3.6692154823
 C         -5.4754636329        3.0402750775        3.6591666871
 C         -6.0620973567        2.6252255586        2.4774614769
 C         -5.3285620063        2.5407674570        1.3045775020
 C         -3.6611363547       -2.9935458645        1.1331413050
 C         -4.1989928051       -3.0911532381        2.4076883111
 C         -3.3889873372       -3.1333758984        3.5268870474
 C         -2.0134920821       -3.0837541040        3.3694060530
 C         -1.4602245405       -2.9866939704        2.1098982034
 C         -2.2731767638       -2.9296538435        0.9729001362
 C          0.2530669036       -1.4164770383       -0.1100702857
 C          1.6157593137       -1.2195183286       -0.1904459439
 H          9.8203576909       -3.3391535146        0.8810174793
 H          9.7608702648       -4.1992336150       -0.6679039517
 H         10.5767672334       -4.9196127249        0.7156246529
 H          7.5850825710       -5.6846029844        2.7430267140
 H          9.3433456971       -5.7671482261        2.6571644432
 H          8.5417039791       -4.2081350339        2.8572667918
 H          9.2712966107       -6.9557832068        0.4110600153
 H          7.5120043980       -6.9569084689        0.5055649238
 H          8.3138850173       -6.2739578129       -0.9073747897
 H          5.8583859939       -5.6613593086        1.3320654444
 H          3.7980777632       -4.5209596681        0.7482432523
 H          8.1915720346       -2.5528625935       -0.4710872380
 H          7.7205047545       -0.2497020565       -1.6689478173
 H          6.9984939357        3.9619390406       -3.9298199297
 H          5.5961191435        3.7108313494       -2.8950603590
 H          5.7294561325        2.8511037830       -4.4361409863
 H          8.5018546839        1.9131843797       -1.2835370037
 H          8.4116731096        3.5163630941       -2.0112113405
 H          7.1373574088        2.9627434924       -0.9107944406
 H          8.6131085950        0.6854823018       -3.4605299654
 H          8.6632324517        2.2321277572       -4.3005340098
 H          7.4443922294        1.0290695864       -4.7330787293
 H          4.2609304939        1.9642510610       -2.8923942203
 H          2.7955659362        0.2675040269       -1.9979865441
 H          2.5326692362       -4.3172048113       -1.2045252516
 H          0.1010618327       -4.6755521516       -0.9962178884
 H         -0.7923604325       -2.6850145312       -2.7628342672
 H         -2.1276336385       -2.7341300514       -4.8069051704
 H         -4.5958303302       -2.9135405464       -4.6772814570
 H         -5.6875698962       -3.0102929164       -2.4722764403
 H         -4.3718383673       -5.8103128614       -0.0572357405
 H         -6.3083471399       -7.3510035281        0.0055891088
 H         -8.5966032465       -6.4743067935        0.0901281274
 H         -9.0118578150       -4.0405201079        0.1178025234
 H         -8.9045491400       -1.4449027039        0.0597713447
 H         -4.0791687576       -0.1136468850        0.0369550412
 H         -7.2595758759        4.6274332857       -0.1504377719
 H         -9.7125459880        4.9489990526       -0.2369654033
 H        -11.2255428753        3.0201860014       -0.1715416292
 H        -10.3312329719        0.7232520181       -0.0279296524
 H         -6.8263954517        2.1772500608       -2.5044397533
 H         -5.4896170358        2.4669758479       -4.5551484048
 H         -3.0349288072        2.7479393413       -4.3762770255
 H         -1.9659911518        2.8529240606       -2.1851368577
 H         -1.5708290072        4.7344367680       -0.6806403998
 H          0.8988571533        4.7305439142       -0.5218503290
 H          7.0325168990        1.4311075446        1.1223801343
 H          8.2582920189       -0.4953133008        2.0738414352
 H          7.0080330591       -2.3848925216        3.0567484595
 H          4.5470996889       -2.3530936601        3.0759839168
 H          3.3285219172       -0.4247982216        2.1350664573
 H          5.8014165623        4.8722337146       -1.0433037311
 H          4.9407617979        7.1199060666       -0.9177368864
 H          3.5867871183        6.0311988456       -1.2569782067
 H          2.9974794949        7.7373551258        0.4586521870
 H          2.8972033692        6.0915593855        1.0928866613
 H          4.0378667046        7.5695016989        2.7174128872
 H          5.2305223831        8.0195016240        1.4946666024
 H          4.7711941021        5.2010878557        2.5721501719
 H          6.1286523593        6.2510520488        2.9886683851
 H          6.7619821588        4.6070693449        1.2337822205
 H          6.8620905113        6.2673810346        0.6227278100
 H          0.7568090688        1.0284048466        1.6095435071
 H         -1.7133015089        1.0111764500        1.4132601524
 H         -2.3448392068        3.5851525793        2.5246300006
 H         -3.6664278119        3.7275158824        4.5809950305
 H         -6.0621246353        3.0977182976        4.5629345548
 H         -7.1087671217        2.3594400240        2.4613866942
 H         -5.2731581614       -3.1338863601        2.5156096333
 H         -3.8256543465       -3.2077543160        4.5106336135
 H         -1.3654167009       -3.1237282803        4.2320093375
 H         -0.3872757844       -2.9580823028        1.9988842965
 H         -0.3951496250       -0.6038844767        0.1770879817
 H          2.0409553685       -0.2603085762        0.0622820718
