  70
  -120.996498426300       0.659115310240579      !
 O         -6.3340825372       -0.9365735450        1.6889722931
 N         -5.6904176643       -1.7383369876        1.0158329635
 O         -6.1825706136       -2.7422554816        0.5061373334
 C         -4.3169249671       -1.4920723632        0.8157164076
 C         -3.7161242448       -0.3690813837        1.3971259941
 C         -2.3873827949       -0.1206373004        1.1881199954
 C         -1.6043941632       -0.9818112618        0.3851778167
 C         -0.2480293938       -0.6751398500        0.0696265953
 C          0.2401103075        0.6739935590        0.0693220364
 C          1.5995093217        0.9741002452        0.3805782671
 C          2.3758173951        0.1142182162        1.1909803888
 C          3.7053827514        0.3570075300        1.4016197393
 C          4.3139058978        1.4717376869        0.8125091245
 N          5.6880196023        1.7125187283        1.0152778309
 O          6.1873817686        2.7091880356        0.4983708666
 O          6.3250771354        0.9131351941        1.6973205483
 C          3.5575363206        2.3526957147        0.0275794210
 C          2.2276867617        2.1137475716       -0.1762125433
 N         -0.6322281473        1.6853457772       -0.2518226944
 C         -0.7659864179        2.8984552427        0.4155550455
 C         -0.0704005155        3.3831175269        1.5132973853
 C         -0.4457160103        4.6142753632        2.0220542390
 C         -1.4891468939        5.3434938637        1.4610431263
 C         -2.2050818071        4.8500212058        0.3834299432
 C         -1.8460155157        3.6186868748       -0.1397847204
 C         -2.3824073997        2.8048421831       -1.2035809299
 C         -3.4162908068        2.9869373849       -2.1066136256
 C         -3.6631541698        1.9908484358       -3.0366407631
 C         -2.8778436133        0.8438068093       -3.0828974085
 C         -1.8368560132        0.6461015995       -2.1930834242
 C         -1.6109022610        1.6230851576       -1.2345158705
 N          0.6276130578       -1.6821665750       -0.2583926487
 C          0.7807230664       -2.8910596033        0.4119475002
 C          0.1021700699       -3.3776230500        1.5194750057
 C          0.4978049002       -4.6010937986        2.0314193642
 C          1.5437496904       -5.3209617139        1.4631825187
 C          2.2412529166       -4.8260461273        0.3739756868
 C          1.8620781372       -3.6022869627       -0.1524465501
 C          2.3774687740       -2.7879881013       -1.2262260327
 C          3.4004690769       -2.9638876829       -2.1427501533
 C          3.6250173409       -1.9692727894       -3.0801814727
 C          2.8291226004       -0.8294418112       -3.1199072606
 C          1.7985945637       -0.6379717821       -2.2166273539
 C          1.5941887498       -1.6138711034       -1.2521883910
 C         -2.2247158992       -2.1304068779       -0.1626142431
 C         -3.5533411195       -2.3757579993        0.0408225397
 H         -4.3199574509        0.2788165244        2.0125263433
 H         -1.9251294223        0.7251674936        1.6713835042
 H          1.9073719594       -0.7249008051        1.6799946789
 H          4.3040497618       -0.2890938774        2.0238338865
 H          4.0508737274        3.2054188567       -0.4112920051
 H          1.6534395048        2.7815824635       -0.7998812477
 H          0.7365689974        2.8247497636        1.9607402059
 H          0.0844028591        5.0134859045        2.8727486270
 H         -1.7484308630        6.3032663862        1.8803484795
 H         -3.0300030857        5.4042968307       -0.0360756176
 H         -4.0117244148        3.8862196994       -2.0857515895
 H         -4.4684405262        2.1088130989       -3.7449783084
 H         -3.0785963295        0.0926473963       -3.8310946892
 H         -1.2261974387       -0.2399784414       -2.2554815544
 H         -0.7063074800       -2.8258004075        1.9723771900
 H         -0.0184219277       -5.0015698531        2.8901557916
 H          1.8199988021       -6.2745316533        1.8858382531
 H          3.0678034245       -5.3732810947       -0.0514512849
 H          4.0046304382       -3.8574348661       -2.1271660067
 H          4.4213272005       -2.0831928055       -3.7992340761
 H          3.0127700146       -0.0791286275       -3.8733381891
 H          1.1786976761        0.2420070434       -2.2737777135
 H         -1.6455395480       -2.8000175889       -0.7798436003
 H         -4.0406513458       -3.2351823968       -0.3916288342
  70
  -120.995718726100       0.288825808389673      !
 O         -6.3834383047       -0.9441318576        1.4623942528
 N         -5.7135109133       -1.7421228822        0.8103198854
 O         -6.1866491406       -2.7396550346        0.2702691566
 C         -4.3326827248       -1.4975740396        0.6697754798
 C         -3.7521444368       -0.3857757559        1.2920805511
 C         -2.4163626449       -0.1352089698        1.1353213798
 C         -1.6066481667       -0.9823616777        0.3451451160
 C         -0.2405691791       -0.6729593160        0.0679493816
 C          0.2477749860        0.6724227422        0.0673329748
 C          1.6145318509        0.9837537896        0.3377864985
 C          2.4313722094        0.1346905882        1.1187517568
 C          3.7666861654        0.3897148163        1.2712316643
 C          4.3400081719        1.5083948609        0.6544074247
 N          5.7199119425        1.7594027830        0.7931919406
 O          6.1871767020        2.7607997134        0.2551919458
 O          6.3948204031        0.9632261585        1.4422587417
 C          3.5419180984        2.3834163803       -0.0950421097
 C          2.2072327801        2.1310182490       -0.2421509181
 N         -0.6337872767        1.6896796719       -0.2134921898
 C         -0.7650105809        2.8753376861        0.5013673707
 C         -0.0460805411        3.3278426556        1.5978255493
 C         -0.4259841650        4.5316178437        2.1652797115
 C         -1.4955921277        5.2648370832        1.6617578882
 C         -2.2322242094        4.8036055737        0.5833614912
 C         -1.8685855552        3.6005075484        0.0011964029
 C         -2.4186847321        2.8212257612       -1.0816178123
 C         -3.4755964810        3.0218489559       -1.9534365811
 C         -3.7280860521        2.0589137684       -2.9165530540
 C         -2.9257797649        0.9280809615       -3.0275031367
 C         -1.8623603621        0.7119500569       -2.1692049191
 C         -1.6314763642        1.6532463590       -1.1767743517
 N          0.6369607489       -1.6914985074       -0.2199447050
 C          0.7661097185       -2.8803951372        0.4898840008
 C          0.0512654576       -3.3329356566        1.5890322221
 C          0.4264402377       -4.5419720365        2.1483489400
 C          1.4877300334       -5.2801399408        1.6344117459
 C          2.2211010794       -4.8185197519        0.5539687752
 C          1.8622217980       -3.6100623021       -0.0200379070
 C          2.4098097371       -2.8298527067       -1.1035227735
 C          3.4600450415       -3.0331439438       -1.9827716961
 C          3.7114263721       -2.0684294860       -2.9443918952
 C          2.9144545541       -0.9331059319       -3.0465535616
 C          1.8581322893       -0.7137795013       -2.1803141469
 C          1.6287186061       -1.6570380409       -1.1894019482
 C         -2.2059038452       -2.1242940616       -0.2381827663
 C         -3.5411990805       -2.3716913660       -0.0876875616
 H         -4.3777191548        0.2526603990        1.8954164408
 H         -1.9709475720        0.7002718527        1.6512284484
 H          1.9921672073       -0.7068478647        1.6303423173
 H          4.3973020116       -0.2498356176        1.8681298895
 H          4.0072352131        3.2420997338       -0.5526926337
 H          1.6007375888        2.7932121572       -0.8408950220
 H          0.7812454277        2.7649268284        2.0004034704
 H          0.1218254320        4.9060941952        3.0162348567
 H         -1.7594054113        6.2020361871        2.1271567898
 H         -3.0761340410        5.3612074056        0.2083652604
 H         -4.0843945355        3.9097115691       -1.8841177656
 H         -4.5510321854        2.1919913012       -3.6015068139
 H         -3.1322553012        0.2044103053       -3.8008186715
 H         -1.2378569237       -0.1600317006       -2.2790299385
 H         -0.7697946414       -2.7664846944        1.9992360842
 H         -0.1179672731       -4.9163154053        3.0014379732
 H          1.7471815423       -6.2219423180        2.0928037942
 H          3.0588536488       -5.3800858197        0.1711626854
 H          4.0646642567       -3.9244610894       -1.9201411047
 H          4.5294337661       -2.2035465685       -3.6350650051
 H          3.1189916060       -0.2088266391       -3.8195914006
 H          1.2382419059        0.1625267006       -2.2824277472
 H         -1.6044428293       -2.7852910273       -0.8433474105
 H         -4.0121373987       -3.2248976200       -0.5494838723
  70
  -120.993658398100       3.264185321460150E-002 !
 O         -5.9645606949       -0.9243793565        2.6334421825
 N         -5.4549399214       -1.7271774960        1.8564209186
 O         -6.0151242532       -2.7526710343        1.4792663698
 C         -4.1528082439       -1.4636326976        1.3822766780
 C         -3.4690367938       -0.3226853281        1.8193008571
 C         -2.1997546334       -0.0768223081        1.3740263316
 C         -1.5557162883       -0.9656924153        0.4802991026
 C         -0.2433201225       -0.6820357548        0.0135592301
 C          0.2475564742        0.6800339660        0.0139771562
 C          1.5617444280        0.9639843313        0.4751858398
 C          2.2118446687        0.0731632025        1.3625709328
 C          3.4816412656        0.3215787452        1.8049777572
 C          4.1598019643        1.4672221234        1.3714738307
 N          5.4617230960        1.7342688544        1.8442091784
 O          6.0168802418        2.7636251564        1.4701826761
 O          5.9773847103        0.9289149201        2.6145639420
 C          3.5438560910        2.3533932311        0.4772189650
 C          2.2715975380        2.1099216151        0.0416702460
 N         -0.5977565488        1.6650221414       -0.4269064852
 C         -0.7520747570        2.9420143260        0.1058505340
 C         -0.1567999073        3.5147160661        1.2203667068
 C         -0.5256049681        4.8050952935        1.5581965245
 C         -1.4682772610        5.5092628599        0.8160800733
 C         -2.0948601253        4.9275166141       -0.2722264631
 C         -1.7421319265        3.6347822894       -0.6238150991
 C         -2.2152767790        2.7309929865       -1.6427655870
 C         -3.1544049230        2.8557904530       -2.6531208187
 C         -3.3700249150        1.7758393048       -3.4919829804
 C         -2.6482972011        0.5976073802       -3.3372943931
 C         -1.7004167799        0.4565995670       -2.3388822768
 C         -1.4996127788        1.5254809925       -1.4773556603
 N          0.5985790609       -1.6664876392       -0.4346775611
 C          0.7527834225       -2.9457922362        0.0924936349
 C          0.1621489922       -3.5211795051        1.2080941023
 C          0.5295984033       -4.8137174990        1.5390751113
 C          1.4664520798       -5.5174113586        0.7891644363
 C          2.0884554362       -4.9331855833       -0.3004460575
 C          1.7370083797       -3.6382848549       -0.6452780465
 C          2.2064321353       -2.7319678782       -1.6637058820
 C          3.1390332478       -2.8555773622       -2.6802343301
 C          3.3522613809       -1.7732312234       -3.5166151237
 C          2.6346792147       -0.5936408826       -3.3532222299
 C          1.6933172132       -0.4537334678       -2.3485005272
 C          1.4948319738       -1.5252413200       -1.4897107943
 C         -2.2702437502       -2.1080756184        0.0452334611
 C         -3.5421321243       -2.3488091601        0.4834366631
 H         -3.9591995124        0.3382873705        2.5165109687
 H         -1.6657308561        0.7843855526        1.7428190338
 H          1.6815751951       -0.7908589900        1.7301821261
 H          3.9761093208       -0.3404241467        2.4981540828
 H          4.0963313091        3.2190184600        0.1474222864
 H          1.8073803116        2.7866798316       -0.6586882938
 H          0.5703065824        2.9800592180        1.8102766305
 H         -0.0694788378        5.2718156814        2.4174168875
 H         -1.7225025801        6.5175421856        1.1038037169
 H         -2.8479698562        5.4607545132       -0.8309845602
 H         -3.7018119626        3.7763021529       -2.7820185278
 H         -4.1002935395        1.8492069175       -4.2828112048
 H         -2.8226963645       -0.2255200060       -4.0129472175
 H         -1.1394763294       -0.4586564559       -2.2546986768
 H         -0.5604157811       -2.9868895175        1.8039094532
 H          0.0769900909       -5.2825742766        2.3989919291
 H          1.7197264012       -6.5273943768        1.0717089413
 H          2.8369877818       -5.4662838646       -0.8654547472
 H          3.6833749134       -3.7769765646       -2.8156323315
 H          4.0774684168       -1.8456734319       -4.3121730645
 H          2.8069948991        0.2313972800       -4.0270755079
 H          1.1353005622        0.4626717447       -2.2575533020
 H         -1.8105969040       -2.7833810674       -0.6595229515
 H         -4.0986586738       -3.2110448973        0.1515798666
  70
  -120.993167519800       1.941702815514660E-002 !
 O         -5.9164698615       -0.9290786385        2.7243158774
 N         -5.4171931516       -1.7354508867        1.9444338192
 O         -5.9807493817       -2.7643384961        1.5821683128
 C         -4.1269039594       -1.4672343372        1.4412015608
 C         -3.4395089557       -0.3214151909        1.8594205139
 C         -2.1795185108       -0.0735458656        1.3896859170
 C         -1.5481748000       -0.9654262476        0.4895879708
 C         -0.2421623231       -0.6822435463        0.0064628497
 C          0.2482928343        0.6815200249        0.0063248910
 C          1.5561217567        0.9641432357        0.4848369916
 C          2.1900114264        0.0720756952        1.3829169662
 C          3.4499292175        0.3218000277        1.8519167775
 C          4.1351136724        1.4690431321        1.4339096460
 N          5.4252018668        1.7392717947        1.9366247822
 O          5.9850337251        2.7714229970        1.5778411725
 O          5.9231462501        0.9371887982        2.7217665928
 C          3.5377422694        2.3536712386        0.5256459418
 C          2.2749327169        2.1092097852        0.0637880894
 N         -0.5929814633        1.6640720503       -0.4465736827
 C         -0.7456591168        2.9473253321        0.0720412102
 C         -0.1600766664        3.5277860012        1.1877214350
 C         -0.5234740597        4.8243309738        1.5072382623
 C         -1.4518349693        5.5274058907        0.7462922314
 C         -2.0705123205        4.9379053521       -0.3422561648
 C         -1.7232198024        3.6387995989       -0.6753887166
 C         -2.1929893355        2.7269255616       -1.6885303361
 C         -3.1223426456        2.8472648785       -2.7084648211
 C         -3.3393193219        1.7594450146       -3.5366130773
 C         -2.6286602472        0.5774307729       -3.3613396276
 C         -1.6903740502        0.4408660302       -2.3532671910
 C         -1.4875000301        1.5183390789       -1.5029836508
 N          0.5963734131       -1.6639801725       -0.4532557655
 C          0.7497909805       -2.9490632682        0.0602785535
 C          0.1725336266       -3.5305516707        1.1797636368
 C          0.5344841151       -4.8291699009        1.4923369719
 C          1.4533325501       -5.5332363893        0.7207830920
 C          2.0637546129       -4.9429375723       -0.3719950945
 C          1.7179156363       -3.6416943135       -0.6982467502
 C          2.1811639909       -2.7284322260       -1.7131490321
 C          3.0995912536       -2.8492617128       -2.7428811803
 C          3.3119758733       -1.7599675264       -3.5702836111
 C          2.6079982844       -0.5756324220       -3.3840555297
 C          1.6806693321       -0.4384393496       -2.3659755342
 C          1.4817930506       -1.5178782590       -1.5172608983
 C         -2.2686491305       -2.1098234564        0.0695537277
 C         -3.5313160254       -2.3527065867        0.5326033323
 H         -3.9190078458        0.3413197626        2.5623605177
 H         -1.6416432496        0.7911896616        1.7443501186
 H          1.6535514432       -0.7934998837        1.7377114511
 H          3.9308651874       -0.3402687983        2.5545037348
 H          4.0965749047        3.2192663902        0.2066340797
 H          1.8253946642        2.7847908056       -0.6471460974
 H          0.5562553932        2.9948592663        1.7921051959
 H         -0.0740354421        5.2969980202        2.3667316153
 H         -1.7023916004        6.5403898728        1.0203937281
 H         -2.8142170887        5.4697208375       -0.9148058723
 H         -3.6612584208        3.7705131817       -2.8526596771
 H         -4.0615741913        1.8294390386       -4.3350616412
 H         -2.8034975126       -0.2522831592       -4.0287921213
 H         -1.1380555692       -0.4779542012       -2.2540868433
 H         -0.5365823140       -2.9967633604        1.7919256484
 H          0.0919138272       -5.3025831508        2.3549757412
 H          1.7031653856       -6.5477376480        0.9899063242
 H          2.8003104308       -5.4757081168       -0.9528504486
 H          3.6332853123       -3.7742032493       -2.8954057025
 H          4.0260925479       -1.8302081860       -4.3760020886
 H          2.7802495322        0.2558685134       -4.0499438446
 H          1.1336041409        0.4825106702       -2.2578191616
 H         -1.8211082334       -2.7855513809       -0.6424705559
 H         -4.0918150702       -3.2171626718        0.2134111371
