  133
       -188.60953027
 C         13.2242147062       -3.1963677597       -3.1964781770
 C         13.7054291188       -2.6785870394       -1.8745750302
 C         14.6931334751       -3.3591698390       -1.1699170884
 C         15.1501556977       -2.8687977581        0.0402568939
 C         14.6293748309       -1.7034584139        0.5693567227
 C         13.6425404140       -1.0069510404       -0.1258222700
 N         13.1013094647        0.1739329917        0.3957321020
 C         13.9182437073        1.0749959013        1.0846998683
 C         15.2376013281        1.2859192110        0.6835293357
 C         16.0408040489        2.1749939141        1.3704974049
 C         15.5447901595        2.8737051734        2.4590899654
 C         14.2341990103        2.6710207793        2.8597375057
 C         13.4257412476        1.7775985356        2.1848827447
 C         11.7420999264        0.4506083516        0.2195927614
 C         11.3134923033        1.7596453682       -0.0129657592
 C          9.9745385911        2.0492185455       -0.1925168719
 C          9.0508020472        1.0166395222       -0.1505855241
 C          9.4770755865       -0.3007380695        0.0790881662
 C         10.8064528991       -0.5887371659        0.2690266284
 C          8.3013855359       -1.2517702998        0.0794764289
 C          8.4313894439       -2.2768743573       -1.0515390297
 C          8.1574714927       -1.9593000217        1.4296444037
 C          7.1478031887       -0.3053988907       -0.1717365892
 C          5.8071333989       -0.5924792909       -0.2709196611
 C          4.8965286968        0.4420577129       -0.5067039154
 C          3.4597052114        0.1596759531       -0.6157032933
 C          3.0097584828       -0.9752811087       -1.2914109481
 C          1.6608789678       -1.2515747546       -1.4197075968
 C          0.7434921685       -0.3772650209       -0.8597421730
 C          1.1840164859        0.7638517628       -0.1724109318
 C          2.5263858047        1.0329856207       -0.0492234249
 C          0.0094620707        1.5612025563        0.3495672311
 C         -0.0079531745        2.9749176624       -0.2386318327
 C          0.0212798770        1.6182378401        1.8805530740
 C         -1.1584318804        0.7414320936       -0.1523653618
 C         -2.5037668722        0.9857916507       -0.0087486622
 C         -3.4274092548        0.0875960680       -0.5504554708
 C         -4.8687952024        0.3420673296       -0.4270464526
 C         -5.3738520487        1.6256987343       -0.6345819667
 C         -6.7285986770        1.8896423087       -0.5500397670
 C         -7.5928817239        0.8515634422       -0.2413257381
 C         -7.0941543771       -0.4411510651       -0.0167296872
 C         -5.7473259674       -0.6990323193       -0.1138578666
 C         -8.2182937838       -1.3970131100        0.3172125571
 C         -8.3034361352       -2.5367113490       -0.7013600392
 C         -8.0629566512       -1.9562100799        1.7350763702
 C         -9.4232603455       -0.4875796384        0.2296183235
 C        -10.7461252395       -0.8053468454        0.4184181731
 C        -11.7117333902        0.1994585169        0.2932228344
 N        -13.0636629387       -0.1008908055        0.4849329229
 C        -13.4471556369       -1.0143539081        1.4700402987
 C        -14.5334261594       -1.8653541501        1.2629619895
 C        -14.9111963006       -2.7636023362        2.2416477744
 C        -14.2122283462       -2.8382088484        3.4353839630
 C        -13.1297827883       -1.9991773235        3.6447817054
 C        -12.7497028852       -1.0909533332        2.6763049518
 C        -14.0336338832        0.5185884264       -0.3132241561
 C        -15.2530108331        0.9164689587        0.2305203498
 C        -16.1976874508        1.5245028902       -0.5741264972
 C        -15.9404036906        1.7511967823       -1.9141539211
 C        -14.7256919695        1.3644495539       -2.4715843925
 C        -14.4549492678        1.5945730671       -3.9277426754
 C        -13.7845725188        0.7464160566       -1.6659966942
 C        -11.3206528815        1.5020180775       -0.0261567513
 C         -9.9904045728        1.8179668209       -0.2242189938
 C         -9.0352520581        0.8219749615       -0.0935423695
 C         -2.9682055840       -1.0450548401       -1.2230124485
 C         -1.6164821883       -1.2918893297       -1.3790926908
 C         -0.7076977811       -0.3932916903       -0.8439946902
 C          5.3676918431        1.7486835382       -0.6414659948
 C          6.7147979700        2.0443173353       -0.5448399205
 C          7.6091780093        1.0133716020       -0.3060875044
 C         13.1934328112       -1.5045485299       -1.3485574937
 H         13.9653476940       -2.9927433916       -3.9696706435
 H         12.2903495741       -2.7201670055       -3.4850247971
 H         13.0740485868       -4.2734583007       -3.1555119239
 H         15.1022790942       -4.2739967808       -1.5724459152
 H         15.9136006480       -3.4050628475        0.5845595155
 H         14.9781821016       -1.3297994997        1.5204716632
 H         15.6240159080        0.7503914595       -0.1711781616
 H         17.0597383464        2.3299447862        1.0473217233
 H         16.1745064805        3.5704998646        2.9909075018
 H         13.8397927035        3.2068636307        3.7106542429
 H         12.4071692729        1.6145931681        2.5053164157
 H         12.0476582626        2.5507138643       -0.0570256216
 H          9.6597685379        3.0658304380       -0.3748666206
 H         11.1412850611       -1.5982800182        0.4566277819
 H          7.5554991086       -2.9208485499       -1.0805442080
 H          9.3142918206       -2.8942363558       -0.9012494978
 H          8.5207179454       -1.7685362600       -2.0095561163
 H          9.0268964671       -2.5833376177        1.6233289261
 H          7.2694382452       -2.5870553768        1.4345444742
 H          8.0691828000       -1.2269385982        2.2293930633
 H          5.4470183132       -1.6035271278       -0.1472693035
 H          3.7330238978       -1.6371644016       -1.7455144437
 H          1.3312250407       -2.1306707732       -1.9537270398
 H          2.8688793010        1.9011935973        0.4948627489
 H         -0.0130593609        2.9293485639       -1.3257551571
 H         -0.8951152254        3.5105867088        0.0913138586
 H          0.8714018078        3.5285758460        0.0822939113
 H          0.0337855766        0.6116710541        2.2935621426
 H          0.9034046153        2.1484830355        2.2320836113
 H         -0.8644258288        2.1326228527        2.2462915679
 H         -2.8564129027        1.8521785671        0.5320797087
 H         -4.6908639205        2.4220606662       -0.8934097222
 H         -7.1040658630        2.8868215952       -0.7266823100
 H         -5.3566400370       -1.6894758286        0.0701454411
 H         -7.4013828499       -3.1431533692       -0.6658587338
 H         -9.1589583119       -3.1727093962       -0.4859409831
 H         -8.4128434286       -2.1345538798       -1.7064196377
 H         -8.9172947829       -2.5790761273        1.9905011397
 H         -7.9986009457       -1.1421400344        2.4541190950
 H         -7.1584292053       -2.5554975961        1.8084035762
 H        -11.0532625838       -1.8131068776        0.6565435930
 H        -15.0744120989       -1.8171653648        0.3294426891
 H        -15.7535682516       -3.4167873313        2.0668190493
 H        -14.5086823670       -3.5436872658        4.1965195428
 H        -12.5814632916       -2.0455419669        4.5743404908
 H        -11.9122138828       -0.4306613482        2.8475697355
 H        -15.4504659552        0.7503432080        1.2790427965
 H        -17.1406386347        1.8332232492       -0.1472803031
 H        -16.6831472467        2.2310727117       -2.5341251048
 H        -14.7068435786        2.6162798948       -4.2061897034
 H        -13.4091743168        1.4131927829       -4.1628688872
 H        -15.0654688270        0.9247228255       -4.5333211561
 H        -12.8393936420        0.4320484680       -2.0853422280
 H        -12.0772269788        2.2679258388       -0.1137980865
 H         -9.7041543245        2.8302912929       -0.4673840592
 H         -3.6879382385       -1.7267044955       -1.6531844803
 H         -1.2782524117       -2.1671399572       -1.9140483145
 H          4.6638318521        2.5416572667       -0.8491097856
 H          7.0613584778        3.0610948834       -0.6571478476
 H         12.4331107232       -0.9599763064       -1.8900996912
