  48
  -80.9924474487000       0.621354789734341      !
 C          8.3963905709       -1.0118740168       -1.0220004581
 C          7.2152302996       -1.4770163256       -1.5778731673
 C          6.0004735353       -0.9893134216       -1.1354433657
 C          5.9665223839       -0.0267162484       -0.1275623058
 C          4.7075459110        0.4866284192        0.3583334430
 N          4.5315566936        1.3777950625        1.2918634445
 N          3.2126214826        1.5463415060        1.4407546796
 C          2.6217911719        0.7532420774        0.5924577953
 C          1.2024860641        0.5772759047        0.4116360000
 C          0.7090246342       -0.2681154536       -0.5824637622
 C         -0.6500043200       -0.4500980356       -0.7223904231
 C         -1.5388108744        0.2022137410        0.1315883733
 N         -2.9223267115       -0.0148426775        0.0040446121
 C         -3.4517475688       -1.3014771143        0.1537812883
 C         -2.6672212578       -2.3921479224        0.5081856637
 C         -3.2237186376       -3.6545467565        0.6462427089
 C         -4.5755547841       -3.8472326414        0.4460847702
 C         -5.3796455356       -2.7621748043        0.1315790219
 C         -4.8296149019       -1.5007732090       -0.0042823080
 O         -5.6961247936       -0.4731955536       -0.2775406903
 C         -5.1675942559        0.7882698142       -0.3886646905
 C         -6.0554685314        1.8148088040       -0.6527821015
 C         -5.5962778105        3.1126503153       -0.8191973482
 C         -4.2424530626        3.3689505448       -0.7402687147
 C         -3.3483631329        2.3435280188       -0.4720695633
 C         -3.7953442327        1.0444029044       -0.2657418919
 C         -1.0439316912        1.0566808860        1.1178499123
 C          0.3136234927        1.2460491617        1.2554388263
 O          3.5234211186        0.0492361821       -0.1326233723
 C          7.1565322319        0.4417873313        0.4297698389
 C          8.3644673439       -0.0531395702       -0.0200938429
 H          9.3431888925       -1.3974827200       -1.3696871095
 H          7.2416671041       -2.2233575874       -2.3578957553
 H          5.0760232858       -1.3483758169       -1.5626795931
 H          1.3960143781       -0.7738518613       -1.2439571859
 H         -1.0367270169       -1.0980519501       -1.4949325603
 H         -1.6127293175       -2.2549777519        0.6881644651
 H         -2.5873372435       -4.4832046603        0.9162306843
 H         -5.0123837662       -4.8281467119        0.5454782564
 H         -6.4431475046       -2.8719103833       -0.0076812057
 H         -7.1035805259        1.5741917166       -0.7311593428
 H         -6.2964093636        3.9076095054       -1.0213086339
 H         -3.8660436649        4.3691378167       -0.8896461130
 H         -2.2919260449        2.5570525321       -0.4331567111
 H         -1.7340085444        1.5545818626        1.7822723349
 H          0.7138033510        1.8929936912        2.0192993107
 H          7.1048267449        1.1859045889        1.2083035783
 H          9.2864153895        0.3070539856        0.4110764711
  48
  -80.9919793850000       0.378645210265659      !
 C          8.3982168642        1.1246708165        1.0665772957
 C          8.3704169592        0.2990163739       -0.0474982058
 C          7.1642391846       -0.1295826610       -0.5646080239
 C          5.9717407918        0.2715075978        0.0378589104
 C          4.7161332675       -0.1836908761       -0.5106303964
 N          4.5494592685       -0.9644719664       -1.5398842759
 N          3.2329522496       -1.1352381620       -1.7035194229
 C          2.6336874195       -0.4526280540       -0.7692068297
 C          1.2121258859       -0.3453547682       -0.5544533993
 C          0.3386684341       -1.0151356401       -1.4136472848
 C         -1.0220300845       -0.9266757135       -1.2198847686
 C         -1.5350969105       -0.1707615364       -0.1650365094
 N         -2.9253285120       -0.0883210108        0.0354443181
 C         -3.6735460341       -1.2389261669        0.3056032396
 C         -3.0868472514       -2.4897195120        0.4515637049
 C         -3.8580380472       -3.6089401025        0.7259313568
 C         -5.2257155819       -3.4959737379        0.8714252986
 C         -5.8228260325       -2.2490225362        0.7629980213
 C         -5.0579870216       -1.1295923955        0.4917035092
 O         -5.7170024539        0.0727544616        0.4356495261
 C         -4.9690477008        1.1934965653        0.1769780401
 C         -5.6477992232        2.3963467358        0.1128254164
 C         -4.9684677230        3.5695330028       -0.1793713460
 C         -3.6114076096        3.5249764086       -0.4260249242
 C         -2.9256793722        2.3215062637       -0.3606392171
 C         -3.5847706408        1.1427702624       -0.0348430783
 C         -0.6619899716        0.4988658070        0.6907436958
 C          0.7007203429        0.4139165926        0.4981194882
 O          3.5275084944        0.1798390592        0.0278285894
 C          6.0013976600        1.1015891332        1.1572625879
 C          7.2145568102        1.5241856611        1.6660791404
 H          9.3438416518        1.4570137478        1.4682249515
 H          9.2940756599       -0.0103473461       -0.5124605342
 H          7.1155812736       -0.7718599842       -1.4292298035
 H          0.7526258904       -1.5887295522       -2.2268942133
 H         -1.7029069751       -1.4351145423       -1.8859022695
 H         -2.0171758544       -2.5915187621        0.3588224943
 H         -3.3747303247       -4.5681854929        0.8285280719
 H         -5.8305877483       -4.3640537590        1.0797720769
 H         -6.8856447323       -2.1212335466        0.8914189599
 H         -6.7114939098        2.3913276566        0.2891502263
 H         -5.5056840603        4.5035984540       -0.2237331324
 H         -3.0716852195        4.4253009442       -0.6759891373
 H         -1.8689452176        2.2994505212       -0.5751598370
 H         -1.0620654266        1.0766940129        1.5106863726
 H          1.3768397599        0.9258157046        1.1660286624
 H          5.0753035483        1.4077184885        1.6197127045
 H          7.2379341959        2.1670204537        2.5334584376
