  48
        -81.26297316
 C          8.4168403774        0.8234413340        1.1879648574
 C          8.3753439840       -0.0257709977        0.0921734625
 C          7.1621121255       -0.4191554831       -0.4362975630
 C          5.9763349483        0.0413744504        0.1361855249
 C          4.7132008443       -0.3773901241       -0.4239259745
 N          4.5332980471       -1.1744700277       -1.4383526561
 N          3.2140285435       -1.2979395683       -1.6211408808
 C          2.6264270244       -0.5715088546       -0.7128249716
 C          1.2067647111       -0.4045115191       -0.5253827311
 C          0.3222221553       -1.0595087030       -1.3846333496
 C         -1.0370175024       -0.9141370577       -1.2166923850
 C         -1.5376393265       -0.1150514559       -0.1880094157
 N         -2.9267319161        0.0256014594       -0.0137353693
 C         -3.7236583272       -1.0887605674        0.2687767490
 C         -3.1887166310       -2.3576245356        0.4526939124
 C         -4.0074408934       -3.4396498393        0.7383150009
 C         -5.3718956992       -3.2706300890        0.8573407654
 C         -5.9180127377       -2.0043442324        0.7108451221
 C         -5.1056773898       -0.9217939390        0.4281802861
 O         -5.7162536859        0.3035213970        0.3339451135
 C         -4.9209457804        1.3883231959        0.0635740614
 C         -5.5510863226        2.6147187536       -0.0391126171
 C         -4.8217369841        3.7537968978       -0.3453588840
 C         -3.4635412571        3.6512159740       -0.5672078202
 C         -2.8264749384        2.4239596983       -0.4631528584
 C         -3.5363766132        1.2793233884       -0.1228437115
 C         -0.6533962857        0.5397278705        0.6678261666
 C          0.7079714487        0.3978116885        0.5009802964
 O          3.5308908406        0.0440046657        0.0854760581
 C          6.0197709230        0.8950594518        1.2372371644
 C          7.2398813419        1.2819881898        1.7576734725
 H          9.3679145693        1.1280943960        1.5986025269
 H          9.2938196490       -0.3811370157       -0.3495942589
 H          7.1027905082       -1.0786679474       -1.2871693684
 H          0.7269269042       -1.6671063800       -2.1775901249
 H         -1.7260642096       -1.4109799961       -1.8830589689
 H         -2.1224399543       -2.5027688699        0.3809437337
 H         -3.5637010957       -4.4142562962        0.8706078796
 H         -6.0135553276       -4.1097029343        1.0743000295
 H         -6.9770211056       -1.8326855923        0.8178037129
 H         -6.6169473708        2.6548319875        0.1186630799
 H         -5.3212862357        4.7066626880       -0.4198233677
 H         -2.8850236923        4.5240667158       -0.8276221926
 H         -1.7679905054        2.3561948268       -0.6586298468
 H         -1.0441774590        1.1511722704        1.4676246531
 H          1.3923685773        0.8983384699        1.1690778518
 H          5.0987775396        1.2472310390        1.6765228995
 H          7.2739211464        1.9430973307        2.6108474954
  48
        -81.26285446
 C          8.3663215909       -1.3586174979       -0.8523908224
 C          7.1773023424       -1.7903609961       -1.4183609640
 C          5.9753233589       -1.2461037078       -1.0081625050
 C          5.9622307863       -0.2601281533       -0.0226418204
 C          4.7163508021        0.3124470231        0.4296632959
 N          4.5597950587        1.2308524192        1.3399655985
 N          3.2461510747        1.4535906564        1.4620055726
 C          2.6389886183        0.6647286945        0.6213241108
 C          1.2170959183        0.5396433026        0.4196749131
 C          0.7075949115       -0.3085524291       -0.5638889096
 C         -0.6549895477       -0.4410422646       -0.7234723175
 C         -1.5317209074        0.2644712430        0.1001540195
 N         -2.9203443883        0.0981720413       -0.0467009261
 C         -3.5019795985       -1.1632880640        0.1222800644
 C         -2.7666008599       -2.2750698176        0.5144614623
 C         -3.3741486574       -3.5115395811        0.6707563613
 C         -4.7289644753       -3.6563765319        0.4513289816
 C         -5.4847714644       -2.5485342382        0.0988129395
 C         -4.8837599614       -1.3127606711       -0.0553780058
 O         -5.7048576107       -0.2589861942       -0.3664782726
 C         -5.1257350602        0.9782471797       -0.4963189326
 C         -5.9683701615        2.0320184088       -0.7986322075
 C         -5.4561877196        3.3070064890       -0.9857612606
 C         -4.0948902225        3.5125458967       -0.8888919625
 C         -3.2460692576        2.4597431532       -0.5824147254
 C         -3.7467657657        1.1839133061       -0.3551473006
 C         -1.0203191554        1.1214996782        1.0757060891
 C          0.3411198608        1.2613712690        1.2327630013
 O          3.5243747900       -0.0899760647       -0.0720845815
 C          7.1601985793        0.1746646724        0.5448672348
 C          8.3552035809       -0.3767156843        0.1272789768
 H          9.3029939839       -1.7883651027       -1.1748330118
 H          7.1875428031       -2.5548001837       -2.1810452256
 H          5.0447868776       -1.5788522748       -1.4434154310
 H          1.3852147830       -0.8554412972       -1.2018870660
 H         -1.0538220512       -1.0910594374       -1.4880835800
 H         -1.7106930083       -2.1746656277        0.7097532551
 H         -2.7751563320       -4.3577783213        0.9701505761
 H         -5.2053260545       -4.6171525463        0.5648196616
 H         -6.5492867402       -2.6202526808       -0.0565429067
 H         -7.0236270897        1.8303473874       -0.8899554932
 H         -6.1213146653        4.1235949954       -1.2176720942
 H         -3.6773120138        4.4937675831       -1.0538303227
 H         -2.1828967006        2.6331252298       -0.5297932638
 H         -1.7013777257        1.6607472358        1.7167520289
 H          0.7535021658        1.9096617064        1.9889536692
 H          7.1246501019        0.9378243507        1.3056709841
 H          9.2832189342       -0.0426505007        0.5663955823
