  48
  -81.2629731600000       8.858896451744967E-002 !
 C          8.4168403774        0.8234413340        1.1879648574
 C          8.3753439840       -0.0257709977        0.0921734625
 C          7.1621121255       -0.4191554831       -0.4362975630
 C          5.9763349483        0.0413744504        0.1361855249
 C          4.7132008443       -0.3773901241       -0.4239259745
 N          4.5332980471       -1.1744700277       -1.4383526561
 N          3.2140285435       -1.2979395683       -1.6211408808
 C          2.6264270244       -0.5715088546       -0.7128249716
 C          1.2067647111       -0.4045115191       -0.5253827311
 C          0.3222221553       -1.0595087030       -1.3846333496
 C         -1.0370175024       -0.9141370577       -1.2166923850
 C         -1.5376393265       -0.1150514559       -0.1880094157
 N         -2.9267319161        0.0256014594       -0.0137353693
 C         -3.7236583272       -1.0887605674        0.2687767490
 C         -3.1887166310       -2.3576245356        0.4526939124
 C         -4.0074408934       -3.4396498393        0.7383150009
 C         -5.3718956992       -3.2706300890        0.8573407654
 C         -5.9180127377       -2.0043442324        0.7108451221
 C         -5.1056773898       -0.9217939390        0.4281802861
 O         -5.7162536859        0.3035213970        0.3339451135
 C         -4.9209457804        1.3883231959        0.0635740614
 C         -5.5510863226        2.6147187536       -0.0391126171
 C         -4.8217369841        3.7537968978       -0.3453588840
 C         -3.4635412571        3.6512159740       -0.5672078202
 C         -2.8264749384        2.4239596983       -0.4631528584
 C         -3.5363766132        1.2793233884       -0.1228437115
 C         -0.6533962857        0.5397278705        0.6678261666
 C          0.7079714487        0.3978116885        0.5009802964
 O          3.5308908406        0.0440046657        0.0854760581
 C          6.0197709230        0.8950594518        1.2372371644
 C          7.2398813419        1.2819881898        1.7576734725
 H          9.3679145693        1.1280943960        1.5986025269
 H          9.2938196490       -0.3811370157       -0.3495942589
 H          7.1027905082       -1.0786679474       -1.2871693684
 H          0.7269269042       -1.6671063800       -2.1775901249
 H         -1.7260642096       -1.4109799961       -1.8830589689
 H         -2.1224399543       -2.5027688699        0.3809437337
 H         -3.5637010957       -4.4142562962        0.8706078796
 H         -6.0135553276       -4.1097029343        1.0743000295
 H         -6.9770211056       -1.8326855923        0.8178037129
 H         -6.6169473708        2.6548319875        0.1186630799
 H         -5.3212862357        4.7066626880       -0.4198233677
 H         -2.8850236923        4.5240667158       -0.8276221926
 H         -1.7679905054        2.3561948268       -0.6586298468
 H         -1.0441774590        1.1511722704        1.4676246531
 H          1.3923685773        0.8983384699        1.1690778518
 H          5.0987775396        1.2472310390        1.6765228995
 H          7.2739211464        1.9430973307        2.6108474954
  48
  -81.2629722000000       8.849901560261542E-002 !
 C          8.4130866422        0.5016770224       -1.3070504356
 C          7.2366186824        0.8134257686       -1.9698431788
 C          6.0162245879        0.5739909212       -1.3678941932
 C          5.9719622063        0.0178048615       -0.0903090225
 C          4.7078443903       -0.2412195800        0.5574631606
 N          4.5242769947       -0.7387287780        1.7472003647
 N          3.2041392648       -0.8129103573        1.9506857715
 C          2.6198491300       -0.3580788936        0.8784045265
 C          1.2013339815       -0.2527175665        0.6439656868
 C          0.7106880875        0.2395006960       -0.5657864334
 C         -0.6489622856        0.3270754586       -0.7754338157
 C         -1.5404441667       -0.0727772682        0.2192191041
 N         -2.9271932680        0.0171396328       -0.0000445661
 C         -3.7296517040       -1.1286041240        0.0181454060
 C         -3.2079549889       -2.3999771984        0.2213453169
 C         -4.0330560531       -3.5145247497        0.2275010813
 C         -5.3904500701       -3.3798328187        0.0186797308
 C         -5.9223125535       -2.1215196791       -0.2200628282
 C         -5.1036547218       -1.0073441066       -0.2295748283
 O         -5.6996665394        0.1963686064       -0.5106152326
 C         -4.9011577550        1.3119191323       -0.5191093742
 C         -5.5187500772        2.5211680500       -0.7800434958
 C         -4.7858070211        3.6984689433       -0.7710741056
 C         -3.4378083111        3.6569763784       -0.4783098315
 C         -2.8133653178        2.4465075139       -0.2184549320
 C         -3.5253623959        1.2542445888       -0.2599138454
 C         -1.0481888493       -0.5607765281        1.4303221197
 C          0.3099604685       -0.6519062210        1.6417967171
 O          3.5272508828        0.0247981055       -0.0512247202
 C          7.1571780878       -0.2952456697        0.5756734750
 C          8.3708104046       -0.0521118794       -0.0360933535
 H          9.3642822404        0.6906574013       -1.7820233145
 H          7.2713901818        1.2457523475       -2.9590944068
 H          5.0952395122        0.8155043072       -1.8779131949
 H          1.4004522604        0.5418942257       -1.3391727144
 H         -1.0337127460        0.6978455188       -1.7139488192
 H         -2.1466581131       -2.5247061454        0.3668241324
 H         -3.5995372497       -4.4885687074        0.3936486993
 H         -6.0372523258       -4.2426686501        0.0271098638
 H         -6.9746515703       -1.9823466109       -0.4091818745
 H         -6.5777062688        2.5194643589       -0.9827578105
 H         -5.2751086327        4.6366139299       -0.9792995702
 H         -2.8578063820        4.5662937863       -0.4442831972
 H         -1.7634730750        2.4320657491        0.0283480570
 H         -1.7420650428       -0.8571906849        2.2025465761
 H          0.7083404767       -1.0209666381        2.5730334538
 H          7.0971972028       -0.7248207227        1.5628493821
 H          9.2889865474       -0.2937632122        0.4775440957
  48
  -81.2629703900000       8.832967277435387E-002 !
 C          8.3804425029       -0.3643553581        1.5416698809
 C          8.3673306923       -0.2035543117        0.1641007734
 C          7.1678506547       -0.1017659906       -0.5120483146
 C          5.9674296640       -0.1610107816        0.1962300080
 C          4.7181056285       -0.0535257463       -0.5195264051
 N          4.5606977572        0.0854465174       -1.8049475901
 N          3.2455276151        0.1435339039       -2.0430944047
 C          2.6381662844        0.0384657219       -0.8952084407
 C          1.2153005305        0.0495805752       -0.6633543624
 C          0.3439238895        0.1529665067       -1.7493261026
 C         -1.0180138067        0.1608752034       -1.5426412062
 C         -1.5337942904        0.0690314690       -0.2493235225
 N         -2.9243707483        0.0748709966       -0.0356665154
 C         -3.5538859032       -1.0217418964        0.5618709834
 C         -2.8676088826       -2.1849622372        0.8875597714
 C         -3.5226916587       -3.2558549654        1.4763492848
 C         -4.8759869179       -3.1878898541        1.7380354602
 C         -5.5828536625       -2.0479268303        1.3858190881
 C         -4.9345757379       -0.9783122170        0.7963435010
 O         -5.7079200719        0.0988813279        0.4446029257
 C         -5.0824294463        1.1530572617       -0.1726293162
 C         -5.8774758779        2.2245784917       -0.5351323499
 C         -5.3155295616        3.3445953659       -1.1291989695
 C         -3.9522128641        3.3902443525       -1.3382916622
 C         -3.1507872344        2.3171469972       -0.9790876732
 C         -3.7023557393        1.1736520123       -0.4150003192
 C         -0.6622578640       -0.0322621577        0.8341149051
 C          0.7010870256       -0.0433792550        0.6302396574
 O          3.5248198649       -0.0904811768        0.1202206891
 C          5.9824076938       -0.3228070186        1.5806170852
 C          7.1888608940       -0.4238474309        2.2465176234
 H          9.3207331922       -0.4434056031        2.0665786715
 H          9.2972833162       -0.1572465532       -0.3821644086
 H          7.1306245657        0.0239856940       -1.5818320022
 H          0.7600701271        0.2158092456       -2.7417458390
 H         -1.6968303431        0.2275495348       -2.3795219383
 H         -1.8135857550       -2.2601174619        0.6712451294
 H         -2.9622297964       -4.1443072970        1.7231205368
 H         -5.3893086614       -4.0158355260        2.2005575847
 H         -6.6447271452       -1.9698023931        1.5555692418
 H         -6.9355134664        2.1642884290       -0.3364602833
 H         -5.9438211671        4.1744362703       -1.4112327316
 H         -3.4958155890        4.2628286897       -1.7794939320
 H         -2.0847539749        2.3763434418       -1.1313780783
 H         -1.0650517805       -0.0952739522        1.8341404707
 H          1.3756396281       -0.1157473834        1.4698868210
 H          5.0499832526       -0.3683844572        2.1232010236
 H          7.2006595290       -0.5487828051        3.3189578158
  48
  -81.2629703300000       8.832406475167837E-002 !
 C          8.3755721134       -0.4335557142        1.5178534197
 C          7.1822660761       -0.5341447539        2.2154312312
 C          5.9776441584       -0.3900124067        1.5544141527
 C          5.9662853252       -0.1428691813        0.1824774821
 C          4.7180957108        0.0104830017       -0.5268574359
 N          4.5608542093        0.2393255461       -1.7994644058
 N          3.2455176186        0.3094570520       -2.0340262774
 C          2.6379185572        0.1214123697       -0.8969454077
 C          1.2155565672        0.1084727068       -0.6628915425
 C          0.3395288117        0.2887059180       -1.7349796638
 C         -1.0215654791        0.2722365445       -1.5234954550
 C         -1.5322856985        0.0794968865       -0.2391032536
 N         -2.9219679639        0.0613454038       -0.0225627840
 C         -3.5458657269       -1.0771531779        0.4981485355
 C         -2.8510305858       -2.2509160856        0.7624220094
 C         -3.5013516693       -3.3621547221        1.2772620959
 C         -4.8584904230       -3.3245225082        1.5246992072
 C         -5.5735479197       -2.1728705310        1.2319883776
 C         -4.9299922222       -1.0629367852        0.7163086497
 O         -5.7121992889        0.0238801512        0.4178345644
 C         -5.0893809174        1.1271599780       -0.1089614906
 C         -5.8902186129        2.2157018401       -0.4011869617
 C         -5.3316237407        3.3819825635       -0.9019562951
 C         -3.9661152190        3.4555170690       -1.0876366622
 C         -3.1589390797        2.3658180968       -0.7983674572
 C         -3.7066403550        1.1780169146       -0.3301170102
 C         -0.6558735071       -0.0968213776        0.8308881445
 C          0.7065547774       -0.0843481903        0.6218118774
 O          3.5247365512       -0.0758368746        0.1073857175
 C          7.1685219733       -0.0418623758       -0.5182757958
 C          8.3660627845       -0.1874849325        0.1528653206
 H          9.3145515046       -0.5464285818        2.0388132320
 H          7.1910803448       -0.7263635820        3.2777419387
 H          5.0438363610       -0.4678465684        2.0910148641
 H          0.7509133321        0.4294533183       -2.7213710457
 H         -1.7039200854        0.3975715125       -2.3507404117
 H         -1.7938249651       -2.3030263048        0.5553399289
 H         -2.9339743509       -4.2579116607        1.4776511507
 H         -5.3681692969       -4.1840435385        1.9301599433
 H         -6.6384426021       -2.1163812656        1.3910470762
 H         -6.9501504728        2.1310270797       -0.2225352041
 H         -5.9643218767        4.2247718864       -1.1304232596
 H         -3.5125842405        4.3625195691       -1.4562975530
 H         -2.0916203922        2.4461779290       -0.9303818111
 H         -1.0539498446       -0.2346360462        1.8252766213
 H          1.3848677592       -0.2151562910        1.4513283785
 H          7.1338841447        0.1490726438       -1.5790752641
 H          9.2975486761       -0.1095375002       -0.3875130547
  48
  -81.2629660200000       8.792215183336372E-002 !
 C          8.4059914789        0.7237753858       -1.2848869919
 C          8.3740380473        0.0230207012       -0.0883061341
 C          7.1652812860       -0.3218335362        0.4827598156
 C          5.9744767273        0.0382405696       -0.1484180034
 C          4.7149741138       -0.3227257977        0.4582057873
 N          4.5393554353       -0.9735265653        1.5729099186
 N          3.2204601812       -1.0868509286        1.7665229073
 C          2.6291279441       -0.5014744749        0.7635450709
 C          1.2092397666       -0.3707326035        0.5512937990
 C          0.7112292134        0.2614987906       -0.5881887242
 C         -0.6497649880        0.3831687870       -0.7722037474
 C         -1.5349861206       -0.1201866385        0.1799603560
 N         -2.9231094515        0.0121486910       -0.0052733525
 C         -3.7425348314       -1.1191350684       -0.0792412379
 C         -3.2296985198       -2.4102358989       -0.0633475860
 C         -4.0703443442       -3.5100176302       -0.1431777850
 C         -5.4354220438       -3.3390298119       -0.2526498689
 C         -5.9603049637       -2.0566034509       -0.3071341257
 C         -5.1258959139       -0.9567190374       -0.2312703734
 O         -5.7168072400        0.2776139763       -0.3314914251
 C         -4.9004961374        1.3780328049       -0.2619351040
 C         -5.5119851465        2.6151008217       -0.3504051764
 C         -4.7610525118        3.7767130514       -0.2522538365
 C         -3.3996673266        3.6890198374       -0.0439520855
 C         -2.7814588478        2.4508529666        0.0432954080
 C         -3.5134436903        1.2775436963       -0.0894146219
 C         -1.0350335362       -0.7541133401        1.3183813369
 C          0.3239236308       -0.8806066670        1.5030926911
 O          3.5304165627        0.0076223543       -0.1097908616
 C          6.0083736933        0.7421470953       -1.3512756835
 C          7.2239549166        1.0814133910       -1.9136619276
 H          9.3535774064        0.9919272817       -1.7278632313
 H          9.2966261985       -0.2539781554        0.3990670691
 H          7.1136014281       -0.8660161298        1.4120358664
 H          1.3961692633        0.6470087857       -1.3282309554
 H         -1.0395891033        0.8621290070       -1.6581144339
 H         -2.1637339926       -2.5601701584        0.0034822897
 H         -3.6434559703       -4.5007940402       -0.1224726589
 H         -6.0940717027       -4.1909636815       -0.3087604892
 H         -7.0195177876       -1.8862243784       -0.4148940372
 H         -6.5806810800        2.6463003552       -0.4895705505
 H         -5.2460533314        4.7369975767       -0.3255809453
 H         -2.8037414252        4.5827681619        0.0577642573
 H         -1.7199415214        2.3994561881        0.2271823432
 H         -1.7241843928       -1.1351971615        2.0570043109
 H          0.7276964998       -1.3601215678        2.3800263747
 H          5.0831735764        1.0181130213       -1.8349815068
 H          7.2504018402        1.6277317916       -2.8449125260
  48
  -81.2629624400000       8.758970315733325E-002 !
 C          8.4039904381       -1.0396087678       -1.0785350484
 C          7.2232671333       -1.4278386055       -1.6913189724
 C          6.0076373168       -1.0132829896       -1.1817794913
 C          5.9725537730       -0.2021205550       -0.0485122777
 C          4.7141165274        0.2428703591        0.5019082977
 N          4.5419699530        1.0117854175        1.5390525584
 N          3.2243424587        1.1741059867        1.7025713106
 C          2.6298968198        0.4986731989        0.7601759953
 C          1.2091695426        0.3809937628        0.5449973798
 C          0.7041840860       -0.4005699498       -0.4944408697
 C         -0.6577576846       -0.5033090017       -0.6826557005
 C         -1.5366065718        0.1715971043        0.1632306919
 N         -2.9259486397        0.0623341656       -0.0314308600
 C         -3.5610714030       -1.1793690144        0.0702018152
 C         -2.8806772427       -2.3332442254        0.4385793096
 C         -3.5416917041       -3.5484052568        0.5344093573
 C         -4.8948881306       -3.6291589291        0.2759100973
 C         -5.5956535052       -2.4801614696       -0.0588536218
 C         -4.9416066976       -1.2656157475       -0.1533165809
 O         -5.7091561465       -0.1689592782       -0.4543004629
 C         -5.0774572633        1.0476501331       -0.5198906069
 C         -5.8657314974        2.1451944262       -0.8125028896
 C         -5.2968052511        3.4041842598       -0.9330157418
 C         -3.9334677889        3.5509540070       -0.7773908587
 C         -3.1388124052        2.4538599178       -0.4810346662
 C         -3.6974697436        1.1917433650       -0.3235917210
 C         -1.0300694527        0.9524054285        1.2028393601
 C          0.3301623812        1.0574531586        1.3931336508
 O          3.5281183894       -0.1204334367       -0.0423100137
 C          7.1622246980        0.1888859127        0.5664593408
 C          8.3708993496       -0.2320943119        0.0488264639
 H          9.3514619888       -1.3666510682       -1.4801566980
 H          7.2508278935       -2.0560276350       -2.5692719805
 H          5.0835670676       -1.3113636691       -1.6543784510
 H          1.3845482599       -0.9173969550       -1.1542224271
 H         -1.0535921727       -1.1007903296       -1.4905148537
 H         -1.8267341203       -2.2818554565        0.6621854594
 H         -2.9859488927       -4.4289447511        0.8176117273
 H         -5.4128597108       -4.5725679726        0.3441958105
 H         -6.6572713330       -2.5033101162       -0.2457841417
 H         -6.9240206404        1.9906635615       -0.9492428373
 H         -5.9198841242        4.2549489620       -1.1585928305
 H         -3.4719020029        4.5199459786       -0.8881931099
 H         -2.0726136606        2.5818610083       -0.3806952079
 H         -1.7149120638        1.4641894456        1.8621794146
 H          0.7392809012        1.6480505491        2.1967468362
 H          7.1094802095        0.8171990130        1.4411039125
 H          9.2924316560        0.0681910925        0.5244001876
  48
  -81.2629528200000       8.670257754311046E-002 !
 C          8.3571097816       -1.2776696446       -1.0820540126
 C          8.3605730205       -0.3702467471       -0.0329706375
 C          7.1705536122        0.1296177174        0.4573354197
 C          5.9628995521       -0.2820543562       -0.1068193205
 C          4.7228322265        0.2425415895        0.4144248441
 N          4.5795353891        1.1017680680        1.3827459337
 N          3.2673293590        1.3060714447        1.5455636223
 C          2.6476658189        0.5652159499        0.6710203647
 C          1.2228394083        0.4521383217        0.4829705294
 C          0.6977906929       -0.3645938544       -0.5189370983
 C         -0.6671909571       -0.4723867738       -0.6777714300
 C         -1.5302688853        0.2296428953        0.1626990928
 N         -2.9223069389        0.1044293609        0.0044043147
 C         -3.5410710650       -1.1423730153        0.1438820590
 C         -2.8412349969       -2.2807411979        0.5241712351
 C         -3.4856704629       -3.5014125025        0.6552743868
 C         -4.8419568150       -3.6034279809        0.4217865110
 C         -5.5621307043       -2.4693091236        0.0780742276
 C         -4.9243668534       -1.2492786383       -0.0517280628
 O         -5.7107595735       -0.1679720361       -0.3585279782
 C         -5.0950739832        1.0541362537       -0.4614322633
 C         -5.9027195089        2.1357338053       -0.7607800366
 C         -5.3521395804        3.3985677845       -0.9192300599
 C         -3.9876627180        3.5645478638       -0.7956146568
 C         -3.1736166468        2.4834785868       -0.4931081476
 C         -3.7131931275        1.2184927623       -0.2962547965
 C         -1.0034744754        1.0489247305        1.1620496740
 C          0.3602692655        1.1618153195        1.3206184263
 O          3.5230339068       -0.1392554298       -0.0849390455
 C          5.9612225496       -1.1941912416       -1.1611454420
 C          7.1583053061       -1.6871718774       -1.6439389658
 H          9.2900491621       -1.6663176265       -1.4622129613
 H          9.2961405044       -0.0526608136        0.4021262799
 H          7.1465311976        0.8354666286        1.2720885252
 H          1.3653658450       -0.9059240218       -1.1720852655
 H         -1.0780119229       -1.0967778904       -1.4572632521
 H         -1.7845148135       -2.2133484058        0.7292977714
 H         -2.9142852224       -4.3694054943        0.9457888879
 H         -5.3470361885       -4.5514833045        0.5167370115
 H         -6.6265657672       -2.5082063431       -0.0889153486
 H         -6.9616945522        1.9656671499       -0.8710790864
 H         -5.9903183237        4.2370487272       -1.1484890809
 H         -3.5402702900        4.5362917039       -0.9366590990
 H         -2.1071222744        2.6262798354       -0.4204236451
 H         -1.6750476740        1.5836952339        1.8167746995
 H          0.7844851649        1.7827853456        2.0929282872
 H          5.0231681308       -1.5095095629       -1.5931971190
 H          7.1571518323       -2.3936013933       -2.4607475563
  48
  -81.2628969600000       8.172605396084867E-002 !
 C          8.3967457875        0.7185847651        1.2829177140
 C          7.2163865213        1.2053737069        1.8216001510
 C          6.0020564046        0.8548697979        1.2633188824
 C          5.9679499998        0.0092519246        0.1555285687
 C          4.7097134369       -0.3750996654       -0.4391695337
 N          4.5344025104       -1.1605628371       -1.4633244549
 N          3.2166053068       -1.2570325005       -1.6725922198
 C          2.6256548192       -0.5263868195       -0.7699629722
 C          1.2060223922       -0.3445193585       -0.5965608064
 C          0.3214588644       -1.0108490248       -1.4469438694
 C         -1.0377475329       -0.8709504030       -1.2736382012
 C         -1.5377018355       -0.0655006571       -0.2495378627
 N         -2.9268907108        0.0482300603       -0.0564094424
 C         -3.6876368693       -1.0781811593        0.2750781637
 C         -3.1174606506       -2.3304136265        0.4668840143
 C         -3.9008847982       -3.4248001044        0.8002064483
 C         -5.2644179295       -3.2847272885        0.9594636391
 C         -5.8446110026       -2.0345763852        0.8054845566
 C         -5.0673940011       -0.9396325222        0.4755479322
 O         -5.7090012109        0.2694290765        0.3773203575
 C         -4.9454511415        1.3694165959        0.0785247310
 C         -5.6030722639        2.5825149975       -0.0072853775
 C         -4.9071394069        3.7344364477       -0.3422777317
 C         -3.5554559280        3.6581863912       -0.6097257898
 C         -2.8903635544        2.4445900913       -0.5211954544
 C         -3.5655851119        1.2880517360       -0.1520659146
 C         -0.6534868810        0.6115218241        0.5886643211
 C          0.7077225820        0.4736431746        0.4175803667
 O          3.5261183923        0.0662438590        0.0496688815
 C          7.1570849996       -0.4795864532       -0.3859129126
 C          8.3645549407       -0.1226611619        0.1804992922
 H          9.3432585008        0.9950858858        1.7230361285
 H          7.2430684184        1.8600631610        2.6799205796
 H          5.0780540700        1.2292430204        1.6783287628
 H          0.7257924489       -1.6281857832       -2.2326841774
 H         -1.7277703320       -1.3811543661       -1.9287934692
 H         -2.0510073823       -2.4530546226        0.3634120094
 H         -3.4301146040       -4.3859271156        0.9375308408
 H         -5.8788141149       -4.1336238999        1.2140437794
 H         -6.9033723768       -1.8851831019        0.9437905483
 H         -6.6637214572        2.6024664684        0.1856011784
 H         -5.4281282039        4.6766014537       -0.4039869156
 H         -3.0041938551        4.5412283101       -0.8939598437
 H         -1.8377476195        2.3960960580       -0.7518717373
 H         -1.0436417763        1.2318763355        1.3818783375
 H          1.3926768762        0.9862989494        1.0758695824
 H          7.1049176611       -1.1325460613       -1.2423517944
 H          9.2859471740       -0.4996590474       -0.2371300443
  48
  -81.2628544600000       7.813198938544612E-002 !
 C          8.3663215909       -1.3586174979       -0.8523908224
 C          7.1773023424       -1.7903609961       -1.4183609640
 C          5.9753233589       -1.2461037078       -1.0081625050
 C          5.9622307863       -0.2601281533       -0.0226418204
 C          4.7163508021        0.3124470231        0.4296632959
 N          4.5597950587        1.2308524192        1.3399655985
 N          3.2461510747        1.4535906564        1.4620055726
 C          2.6389886183        0.6647286945        0.6213241108
 C          1.2170959183        0.5396433026        0.4196749131
 C          0.7075949115       -0.3085524291       -0.5638889096
 C         -0.6549895477       -0.4410422646       -0.7234723175
 C         -1.5317209074        0.2644712430        0.1001540195
 N         -2.9203443883        0.0981720413       -0.0467009261
 C         -3.5019795985       -1.1632880640        0.1222800644
 C         -2.7666008599       -2.2750698176        0.5144614623
 C         -3.3741486574       -3.5115395811        0.6707563613
 C         -4.7289644753       -3.6563765319        0.4513289816
 C         -5.4847714644       -2.5485342382        0.0988129395
 C         -4.8837599614       -1.3127606711       -0.0553780058
 O         -5.7048576107       -0.2589861942       -0.3664782726
 C         -5.1257350602        0.9782471797       -0.4963189326
 C         -5.9683701615        2.0320184088       -0.7986322075
 C         -5.4561877196        3.3070064890       -0.9857612606
 C         -4.0948902225        3.5125458967       -0.8888919625
 C         -3.2460692576        2.4597431532       -0.5824147254
 C         -3.7467657657        1.1839133061       -0.3551473006
 C         -1.0203191554        1.1214996782        1.0757060891
 C          0.3411198608        1.2613712690        1.2327630013
 O          3.5243747900       -0.0899760647       -0.0720845815
 C          7.1601985793        0.1746646724        0.5448672348
 C          8.3552035809       -0.3767156843        0.1272789768
 H          9.3029939839       -1.7883651027       -1.1748330118
 H          7.1875428031       -2.5548001837       -2.1810452256
 H          5.0447868776       -1.5788522748       -1.4434154310
 H          1.3852147830       -0.8554412972       -1.2018870660
 H         -1.0538220512       -1.0910594374       -1.4880835800
 H         -1.7106930083       -2.1746656277        0.7097532551
 H         -2.7751563320       -4.3577783213        0.9701505761
 H         -5.2053260545       -4.6171525463        0.5648196616
 H         -6.5492867402       -2.6202526808       -0.0565429067
 H         -7.0236270897        1.8303473874       -0.8899554932
 H         -6.1213146653        4.1235949954       -1.2176720942
 H         -3.6773120138        4.4937675831       -1.0538303227
 H         -2.1828967006        2.6331252298       -0.5297932638
 H         -1.7013777257        1.6607472358        1.7167520289
 H          0.7535021658        1.9096617064        1.9889536692
 H          7.1246501019        0.9378243507        1.3056709841
 H          9.2832189342       -0.0426505007        0.5663955823
  48
  -81.2628361800000       7.663514369297446E-002 !
 C          8.3866755619        1.0965677643        1.0217259161
 C          8.3638402303        0.1588112765       -0.0000848515
 C          7.1608341433       -0.3402116492       -0.4583843994
 C          5.9665710904        0.1033039835        0.1101923789
 C          4.7124996829       -0.4126314549       -0.3855748154
 N          4.5443517825       -1.2755621052       -1.3466398858
 N          3.2271278621       -1.4573680546       -1.4953590192
 C          2.6295362722       -0.7006601726       -0.6190626029
 C          1.2087549016       -0.5501124374       -0.4266547288
 C          0.3254185500       -1.1884454866       -1.2993805073
 C         -1.0337511113       -1.0208754212       -1.1506494295
 C         -1.5358383003       -0.2191892551       -0.1245215035
 N         -2.9215190506       -0.0232804990        0.0138655865
 C         -3.7824410138       -1.1046447940        0.2291841182
 C         -3.3190119187       -2.4052062177        0.3837863991
 C         -4.2010400303       -3.4533657550        0.5986458087
 C         -5.5589414280       -3.2191084624        0.6753352731
 C         -6.0348134877       -1.9216881427        0.5609220412
 C         -5.1590991904       -0.8726490057        0.3500825098
 O         -5.7037926303        0.3852852922        0.2883604297
 C         -4.8484349455        1.4356972441        0.0725234396
 C         -5.4142429159        2.6948088204       -0.0097667814
 C         -4.6220443003        3.8040074755       -0.2646106923
 C         -3.2659073345        3.6387065459       -0.4593799029
 C         -2.6936347970        2.3785922146       -0.3753417356
 C         -3.4665187448        1.2621095335       -0.0808809455
 C         -0.6525383106        0.4009011425        0.7585995224
 C          0.7082248569        0.2411690418        0.6076311482
 O          3.5248035931       -0.0078436824        0.1244092886
 C          5.9914266408        1.0447144720        1.1381618982
 C          7.2013190979        1.5370589787        1.5885525588
 H          9.3296237841        1.4853103117        1.3761667052
 H          9.2890102378       -0.1818936122       -0.4400452445
 H          7.1161267862       -1.0681022282       -1.2525636483
 H          0.7309389563       -1.7942210719       -2.0935059792
 H         -1.7199233535       -1.4947111185       -1.8364121294
 H         -2.2593364163       -2.6021675664        0.3453208648
 H         -3.8121022073       -4.4538086703        0.7086990078
 H         -6.2496604771       -4.0315080364        0.8360428791
 H         -7.0869471229       -1.6992126281        0.6389580162
 H         -6.4804311757        2.7838688728        0.1234800826
 H         -5.0712525056        4.7826405789       -0.3226639418
 H         -2.6383128892        4.4873525573       -0.6836393158
 H         -1.6355938826        2.2642644983       -0.5502921609
 H         -1.0447017862        1.0063554640        1.5622345149
 H          1.3910662651        0.7221438126        1.2914622367
 H          5.0637102577        1.3845594879        1.5739638691
 H          7.2207100911        2.2675178347        2.3836700479
  48
  -81.2628077600000       7.436473734686773E-002 !
 C          8.3333757847       -1.5018346400       -0.8820571798
 C          8.3501853410       -0.4580908094        0.0313306433
 C          7.1687378305        0.1323335018        0.4335943956
 C          5.9562338416       -0.3250992342       -0.0827935415
 C          4.7240790675        0.2875654391        0.3545805837
 N          4.5905845541        1.2510084631        1.2209612092
 N          3.2813647933        1.4962191476        1.3482492719
 C          2.6538911740        0.6763371350        0.5534369300
 C          1.2282569007        0.5588643952        0.3743929831
 C          0.6988266612       -0.3127452673       -0.5777648061
 C         -0.6666921808       -0.4393346317       -0.7146211031
 C         -1.5268805406        0.2943851623        0.1019330046
 N         -2.9181657038        0.1300773444       -0.0186019399
 C         -3.5005268757       -1.1248112010        0.1928807528
 C         -2.7623782801       -2.2280391909        0.6037192523
 C         -3.3705162048       -3.4582476501        0.8012817580
 C         -4.7287162108       -3.6049747046        0.6059990911
 C         -5.4868539852       -2.5046265522        0.2357134521
 C         -4.8850899811       -1.2750269714        0.0398696426
 O         -5.7081340144       -0.2275951528       -0.2869031781
 C         -5.1286642344        1.0051121463       -0.4530973170
 C         -5.9739931895        2.0537230189       -0.7656000808
 C         -5.4625638449        3.3230368964       -0.9892786663
 C         -4.0995782074        3.5274963470       -0.9189967009
 C         -3.2478834027        2.4798812727       -0.6028784215
 C         -3.7471927255        1.2106337204       -0.3385068381
 C         -0.9955822047        1.1753878059        1.0449444498
 C          0.3689353909        1.3103533570        1.1781381477
 O          3.5209283311       -0.1225299448       -0.1131330273
 C          5.9412986970       -1.3731147270       -1.0020876675
 C          7.1298503394       -1.9565082030       -1.3969980727
 H          9.2595859570       -1.9617925648       -1.1927634342
 H          9.2894546594       -0.1059513314        0.4304624777
 H          7.1549726339        0.9433877212        1.1439242025
 H          1.3634725122       -0.8824342030       -1.2094083958
 H         -1.0808375559       -1.1074414627       -1.4551347452
 H         -1.7034555001       -2.1258395304        0.7808090792
 H         -2.7692310982       -4.2979578747        1.1139097086
 H         -5.2056807119       -4.5610364435        0.7519724388
 H         -6.5537348014       -2.5772815274        0.0981361368
 H         -7.0309620263        1.8523999799       -0.8354082664
 H         -6.1297521696        4.1357499324       -1.2284923430
 H         -3.6828701240        4.5036841614       -1.1130702939
 H         -2.1837675738        2.6522355915       -0.5710402724
 H         -1.6634014836        1.7369145827        1.6807940580
 H          0.7962889691        1.9772840691        1.9093368284
 H          4.9995452743       -1.7233712250       -1.3977248087
 H          7.1182952163       -2.7688300347       -2.1084392418
  48
  -81.2627926600000       7.318592543395828E-002 !
 C          8.3896164486        0.8882536817       -1.1549704988
 C          7.2069772419        1.2103206275       -1.8011998992
 C          5.9950030341        0.8127933437       -1.2698232885
 C          5.9654179796        0.0862089636       -0.0805281985
 C          4.7086506261       -0.3243086518        0.4998674570
 N          4.5340776959       -0.9741001611        1.6151947909
 N          3.2158713130       -1.1252373216        1.7883120595
 C          2.6242190100       -0.5643868393        0.7719761716
 C          1.2050433919       -0.4585561392        0.5418017592
 C          0.7138260630        0.0895354443       -0.6433781513
 C         -0.6452941189        0.2141416601       -0.8354862197
 C         -1.5365762840       -0.1965218876        0.1554025761
 N         -2.9202568185       -0.0311920197       -0.0320017688
 C         -3.7864800819       -1.1294423956       -0.0041853200
 C         -3.3304604474       -2.4335503692        0.1418469388
 C         -4.2177234712       -3.4987785026        0.1641387543
 C         -5.5736342917       -3.2814711100        0.0280770479
 C         -6.0419640161       -1.9895906660       -0.1572944370
 C         -5.1608999399       -0.9244079195       -0.1840371827
 O         -5.6981977064        0.3170242428       -0.4141318062
 C         -4.8381501713        1.3853801715       -0.4328652002
 C         -5.3970644227        2.6329235236       -0.6411938158
 C         -4.6004767893        3.7678292002       -0.6346284446
 C         -3.2470171886        3.6451248795       -0.3947917349
 C         -2.6816240115        2.3960957393       -0.1882238738
 C         -3.4585740130        1.2450002575       -0.2321365952
 C         -1.0436795854       -0.7563597742        1.3349449274
 C          0.3138814626       -0.8905840082        1.5259727212
 O          3.5244591834       -0.0353200664       -0.0905911995
 C          7.1568860233       -0.2379914916        0.5682354253
 C          8.3620667822        0.1639962289        0.0275074985
 H          9.3340837062        1.2027652410       -1.5729895122
 H          7.2299333412        1.7743971277       -2.7216630962
 H          5.0691323972        1.0619908703       -1.7667503008
 H          1.4028919387        0.4090657185       -1.4108658346
 H         -1.0300103249        0.6301054610       -1.7549247392
 H         -2.2723053835       -2.6221577046        0.2306946655
 H         -3.8342844967       -4.5000679308        0.2850845239
 H         -6.2685290523       -4.1057618375        0.0516020926
 H         -7.0921671818       -1.7854321075       -0.2911259243
 H         -6.4616616373        2.6938663265       -0.8010421652
 H         -5.0441665481        4.7361595087       -0.8029296222
 H         -2.6162545854        4.5200389801       -0.3606917615
 H         -1.6258254820        2.3200263163        0.0186847194
 H         -1.7356679197       -1.0681836285        2.1027655981
 H          0.7119689802       -1.3112826668        2.4351922201
 H          7.1085452387       -0.7993976446        1.4873662840
 H          9.2853117227       -0.0856455330        0.5284167398
