  65
       -113.62906136
 O         -0.0041067253       -4.2880804299        2.6544698885
 S          0.0030267300       -3.9243210086        1.2496146975
 O          0.0064789574       -5.0448217619        0.3275169659
 C         -1.2902605307       -2.7571218432        0.8662158183
 C         -2.6434487947       -2.9402012948        0.9304840309
 C         -3.4931746124       -1.8932424678        0.5876305741
 C         -2.9295169400       -0.6656895479        0.1845914459
 N         -3.8106832092        0.4002471287       -0.1479233904
 C         -3.9050479976        1.5155310114        0.6642882290
 C         -3.1366675973        1.6649498883        1.8191938947
 C         -3.2581090675        2.7965293037        2.6014504663
 C         -4.1512312905        3.8020208090        2.2554939284
 C         -4.9382393699        3.6640607136        1.1262818578
 C         -4.8260825198        2.5314021486        0.3355525278
 O         -5.6454406418        2.4405267569       -0.7510088056
 C         -5.5457193511        1.3311824591       -1.5383084464
 C         -6.3803413812        1.2520380850       -2.6421656568
 C         -6.3073020976        0.1598217933       -3.4881488629
 C         -5.3856246528       -0.8480269082       -3.2383779532
 C         -4.5498181045       -0.7793310126       -2.1406214047
 C         -4.6263545079        0.3001169937       -1.2601822850
 C         -1.5695649914       -0.4721364922        0.1173700711
 C         -0.6985053850       -1.5245216303        0.4626453348
 C          0.7159084416       -1.5263054367        0.4682782059
 C          1.5921095531       -0.4770084265        0.1276246362
 C          2.9512123508       -0.6735734929        0.2050813520
 N          3.8328064898        0.3917090341       -0.1283597223
 C          4.6393199328        0.2990858386       -1.2477801407
 C          4.5849628964       -0.7936071898       -2.1132755802
 C          5.4097209686       -0.8520103935       -3.2199874490
 C          6.2970996843        0.1799360275       -3.4944447722
 C          6.3481468979        1.2843260759       -2.6628553030
 C          5.5256938949        1.3524878764       -1.5490888473
 O          5.6028284288        2.4741909661       -0.7768931365
 C          4.7979315376        2.5533787396        0.3212292200
 C          4.8884971763        3.6969872193        1.0988224049
 C          4.1146692701        3.8234408375        2.2384390148
 C          3.2573048390        2.7954917612        2.6086345528
 C          3.1561465407        1.6536562633        1.8386842339
 C          3.9103491112        1.5156558863        0.6729861035
 C          3.5093291964       -1.9004296815        0.6168298288
 C          2.6542678091       -2.9449436728        0.9546316634
 C          1.3020163465       -2.7595739259        0.8780902355
 H         -3.0429567264       -3.8911693207        1.2473070495
 H         -4.5641385507       -2.0004185893        0.6409536913
 H         -2.4517056305        0.8799435056        2.0971829461
 H         -2.6537142794        2.8918047567        3.4897642569
 H         -4.2407513155        4.6856051384        2.8668548773
 H         -5.6517262585        4.4194396594        0.8384383341
 H         -7.0747353170        2.0579022905       -2.8174594117
 H         -6.9608247367        0.1002217652       -4.3436714071
 H         -5.3144136466       -1.6935733180       -3.9042211419
 H         -3.8293731336       -1.5589782381       -1.9526223603
 H         -1.1763168379        0.4811715681       -0.2033569212
 H          1.2039837692        0.4768898560       -0.1976468706
 H          3.8903598313       -1.5918345243       -1.9069410768
 H          5.3555231464       -1.7077403236       -3.8743627263
 H          6.9402870704        0.1295922613       -4.3583517730
 H          7.0154212321        2.1085469628       -2.8573034316
 H          5.5758666281        4.4695062323        0.7934295119
 H          4.1880572435        4.7150405322        2.8402291622
 H          2.6654864705        2.8814592212        3.5063054038
 H          2.4976587308        0.8522807632        2.1335583832
 H          4.5795492602       -2.0097189416        0.6798072621
 H          3.0490104503       -3.8961950973        1.2766332227
