65
 energy: -113.680687335207 gnorm: 0.000056664757 xtb: 6.7.1 (edcfbbe)
O            0.01045371445195       -4.17884079312470        2.80439230779758
S            0.01136666537157       -3.85318252130046        1.38161416348175
O            0.01636140364370       -5.02278958904241        0.50840412116434
C           -1.28583435022088       -2.71985559252716        0.96274214077994
C           -2.63951497481587       -2.90390455530740        1.05149063439415
C           -3.49600225688552       -1.87582061596124        0.67814083138002
C           -2.94073544030616       -0.66168790282880        0.21449371865714
N           -3.82847085973215        0.38973221281392       -0.14784286061120
C           -3.91340882712760        1.53599537507087        0.62345805526904
C           -3.13598930732533        1.72615630908890        1.76667632790530
C           -3.24704286333651        2.88836713749867        2.50560717265877
C           -4.13772416062296        3.88313286141767        2.12773547635704
C           -4.93347639725573        3.70572706425279        1.00951869131519
C           -4.83075677855512        2.54233393728708        0.26239762831715
O           -5.65710860575643        2.41548411797885       -0.81661343732769
C           -5.56099901145792        1.28001855699370       -1.56759710069843
C           -6.39557406160671        1.16996420268556       -2.66916365033171
C           -6.32877557028292        0.04901673078635       -3.47835792005394
C           -5.41560284580578       -0.95589382938759       -3.19280341212953
C           -4.57896349851863       -0.85530611460111       -2.09738440607261
C           -4.64685452474006        0.25534107346227       -1.25526315674640
C           -1.58347516564115       -0.46831899879018        0.12018722678804
C           -0.70067445394201       -1.50012792960436        0.50082902057075
C            0.71057518518986       -1.49546098302903        0.50301736496023
C            1.58772464147864       -0.45768239962177        0.12550453561460
C            2.94591917665841       -0.64219525877409        0.22383965495480
N            3.82789887397451        0.41520471981364       -0.13522667445460
C            4.64970664088189        0.28709519431027       -1.24083160724284
C            4.59041013016240       -0.82292458521500       -2.08441072298161
C            5.43006352057798       -0.91711889262559       -3.17808906108147
C            6.33785690864123        0.09359109865657       -3.46029273381638
C            6.39618751460603        1.21387008239127       -2.64951282472391
C            5.55850778568614        1.31756079113322       -1.54968923467598
O            5.64622614497765        2.45251672906562       -0.79689414160871
C            4.81652843523331        2.57307230065168        0.28028259044393
C            4.91065620058640        3.73600243568346        1.02924537652780
C            4.11115686022302        3.90723666642693        2.14575185696649
C            3.22526500265113        2.90685175683970        2.52001919442860
C            3.12274545293150        1.74504188430677        1.77922672120328
C            3.90416730844660        1.56093081252440        0.63774878372604
C            3.50777865055197       -1.85288211418495        0.68852814398143
C            2.65693859565875       -2.88664669368739        1.05907854562929
C            1.30234582712767       -2.71140626380316        0.96645397771810
H           -3.02927700877047       -3.84393129082275        1.41415300937178
H           -4.56539107344737       -1.98601255155336        0.75098685817159
H           -2.45148042429542        0.95018918587955        2.06954107832573
H           -2.63526590400876        3.01493720062660        3.38492133880465
H           -4.21979035615594        4.79008565034861        2.70498156697120
H           -5.64562555469735        4.45286922370001        0.69768835103309
H           -7.08488289048148        1.97371461594505       -2.87243265303281
H           -6.98125586745430       -0.03376456897754       -4.33281697889781
H           -5.35018451342547       -1.82515151270725       -3.82824952021172
H           -3.86488867453001       -1.63391722667685       -1.88252104907685
H           -1.19569585042424        0.47050740084264       -0.24501400199327
H            1.19490660779380        0.47879913489372       -0.24032831908513
H            3.88063268794168       -1.60612007097320       -1.87195987313128
H            5.37129952068657       -1.78596867094725       -3.81474631072463
H            6.99278993056816        0.01578673973853       -4.31333888577381
H            7.08124566784951        2.02188603006567       -2.85021844390376
H            5.61920810068624        4.48771221273240        0.72020782440883
H            4.18654586455635        4.81386502861667        2.72442471791052
H            2.61057784483807        3.02866504335907        3.39797528296667
H            2.44191425034397        0.96474645205164        2.07927044364667
H            4.57765283745039       -1.95612765102854        0.76437520240701
H            3.05175268671307       -3.82422327734554        1.42260427051374
