65
 energy: -113.751999386869 gnorm: 0.000084062297 xtb: 6.7.1 (edcfbbe)
O            0.01081268325602       -4.35243811288133        2.58799507874286
S            0.01267081154634       -3.99112068556846        1.18790959916304
O            0.01931252860403       -5.08949413348841        0.24762641907856
C           -1.29257863265599       -2.82069246061530        0.81673083631342
C           -2.65471196651196       -3.00315183465779        0.88682601675136
C           -3.48484308707193       -1.93844037916928        0.57072361486629
C           -2.94323106818935       -0.71235921197419        0.17835899271320
N           -3.79195944384125        0.36404092577274       -0.13314832311891
C           -3.72480004726081        1.56163867567441        0.59297260537774
C           -2.84539812813105        1.74514907605159        1.65363953237708
C           -2.80681453572198        2.94473137741315        2.34845530481558
C           -3.65572121824652        3.97823355281533        2.00629308004987
C           -4.56604101565132        3.79866416208986        0.97576121958889
C           -4.60948703423492        2.60265257029376        0.28158709472175
O           -5.56791963986184        2.49214971097858       -0.69714498401624
C           -5.61687803797760        1.31589073206116       -1.40561503051770
C           -6.56686460087437        1.23050285185759       -2.40771531507965
C           -6.65351195712163        0.09232150505319       -3.19523107862315
C           -5.76902321135717       -0.94699973693639       -2.98566218359572
C           -4.81795180229944       -0.86701701798988       -1.97964360837449
C           -4.74313690174009        0.24982455555520       -1.15593317300846
C           -1.55933654349360       -0.54707585123163        0.10018872709507
C           -0.72690881996919       -1.60638621591131        0.42980557099154
C            0.73635610216671       -1.60084094893326        0.43192507080764
C            1.56161829291776       -0.53591339692648        0.10224335951383
C            2.94651416096609       -0.69012827340242        0.18559699197939
N            3.78859020718434        0.39129933784101       -0.12596045343166
C            4.74877479941542        0.27755251163027       -1.14050362517658
C            4.83160875562687       -0.83980380073485       -1.96280316328103
C            5.79172943022307       -0.91994564266930       -2.96014463331593
C            6.67729314333206        0.11989400628191       -3.16264579599879
C            6.58244082309651        1.25884533937341       -2.37722937949042
C            5.62337730196419        1.34432824019733       -1.38377112879072
O            5.56667920705232        2.52119332279652       -0.67704020655046
C            4.59586089351528        2.63354482878442        0.28919879301250
C            4.54109675618481        3.83271181246414        0.97712374928255
C            3.61791524055964        4.01497391553116        1.99562479255194
C            2.76777995391556        2.98077632326610        2.33258891765947
C            2.81788507331734        1.77794995166008        1.64414156514890
C            3.71009802675242        1.59164248602314        0.59470478985862
C            3.49611414888892       -1.91124898149974        0.58266018332445
C            2.67331325131309       -2.98196704179114        0.89730651645811
C            1.31000574768727       -2.81026074097870        0.82228884332165
H           -3.05934668096093       -3.95378138923973        1.19599100257151
H           -4.55638194329417       -2.04912939735460        0.63465806382719
H           -2.19147577879855        0.94132995986712        1.95174411796310
H           -2.10862997498804        3.05839675385457        3.16322680515746
H           -3.62735888991779        4.91530351014450        2.53946355572239
H           -5.26116819018124        4.57483897714515        0.69663539140578
H           -7.22624206407805        2.07077598857812       -2.55823445637585
H           -7.39989491813232        0.03304616358091       -3.97152568751352
H           -5.80719113812204       -1.83006152603977       -3.60473769092792
H           -4.12338287257800       -1.68027773373183       -1.84093159626826
H           -1.15403837092438        0.39989377191094       -0.21939715381288
H            1.14980227862573        0.40659135669277       -0.22215149489117
H            4.13647358788291       -1.65350511738791       -1.82952105832017
H            5.83597369982692       -1.80340058400389       -3.57824847046339
H            7.43079165835243        0.06044555633853       -3.93202295556223
H            7.24236293272025        2.09958807213888       -2.52265531513407
H            5.23783142965090        4.60915414100333        0.70280851019579
H            3.58066551020036        4.95455346841159        2.52379501927526
H            2.05960504523778        3.09642462759693        3.13841990176569
H            2.16285326401398        0.97385902487001        1.93889576510197
H            4.56824952250809       -2.01350831016471        0.65062681811729
H            3.08433167243075       -3.92900866951308        1.20902630777717
