65
 energy: -113.751769344414 gnorm: 0.000055023201 xtb: 6.7.1 (edcfbbe)
O            0.10085690120827       -1.18492703220539       -5.24272285033861
S            0.00217747528021        0.03284922494613       -4.46969897767256
O           -0.09600699156000        1.26073826373151       -5.22656922230909
C           -1.29443469263619       -0.08237539421308       -3.23867517533378
C           -2.65177952702780       -0.19566769374661       -3.43383034583178
C           -3.47788308878617       -0.27102783522681       -2.32290969078136
C           -2.93540870945414       -0.24502153701840       -1.03646807551495
N           -3.78244169538723       -0.32534627783375        0.08339447145863
C           -4.62249466503905       -1.43245683308888        0.26290925605308
C           -4.57336801144330       -2.54503876351595       -0.56850376086515
C           -5.41440060390286       -3.62759733842015       -0.35901856049060
C           -6.30854714051122       -3.62443500311109        0.69300160000404
C           -6.34449919763224       -2.53794634812920        1.55410968475193
C           -5.50605893709625       -1.45670397672797        1.34966430814975
O           -5.57728452140999       -0.43549123220665        2.26646664838698
C           -4.74020020846157        0.63914682628212        2.08409828073334
C           -4.83044150813717        1.66138136207363        3.01187614804011
C           -4.04680429359545        2.79799054074157        2.88056201476902
C           -3.18987949979252        2.91018283993280        1.80405426721531
C           -3.09523329450513        1.88720801964335        0.87232663091193
C           -3.84787213742156        0.72666502704647        1.00733128599982
C           -1.55551990078247       -0.13822389525723       -0.85512632303036
C           -0.72789038021282       -0.04736249924533       -1.96496790914761
C            0.73077283387292        0.07577039464512       -1.96366438733598
C            1.55776014514336        0.15017354152108       -0.85218688945600
C            2.93759193519663        0.26210177849274       -1.03103707677257
N            3.78357437535218        0.32446327440920        0.09072981866988
C            4.62189315527799        1.42933886174216        0.29071228752731
C            4.57374584824426        2.55542415692306       -0.52237024677423
C            5.41298152122674        3.63529217446469       -0.29271903533687
C            6.30417496382365        3.61574548852660        0.76163671756780
C            6.33886613252283        2.51534886358801        1.60495845986873
C            5.50238116057362        1.43662522491117        1.38023303732665
O            5.57236016774467        0.40036910899835        2.28010592120088
C            4.73746622621793       -0.67228366963242        2.07741121779430
C            4.82679688955353       -1.70990056637049        2.98805346228787
C            4.04547260377711       -2.84540869452537        2.83525421242161
C            3.19183187435431       -2.94080911093723        1.75452062547703
C            3.09804996773499       -1.90234697631315        0.84001174747208
C            3.84823983198281       -0.74296398963798        0.99687963984202
C            3.48060962487657        0.31040938302041       -2.31657127203425
C            2.65514771106301        0.25075627690792       -3.42894416096972
C            1.29797743323296        0.13130693009133       -3.23637916868643
H           -3.05646411703004       -0.21372029769928       -4.43325148686566
H           -4.54735224775674       -0.34520496500325       -2.44631531367882
H           -3.86815368152419       -2.57189950786598       -1.38404128727470
H           -5.35806786846926       -4.47436022277789       -1.02558844711238
H           -6.96930667778022       -4.46077590194713        0.85770544694526
H           -7.01531757165257       -2.51080421544139        2.39835007838509
H           -5.52792112803130        1.54911663525415        3.82699993857230
H           -4.12250680259570        3.58864706398824        3.61018659549321
H           -2.58948362332227        3.79734336521130        1.67408107496266
H           -2.43780201831488        2.00334229150546        0.02552310973279
H           -1.14940623277200       -0.13541272607434        0.14405476155000
H            1.15127256339331        0.13059907603149        0.14665816583387
H            3.87068767488025        2.59480537927452       -1.33925362439271
H            5.35764272433184        4.49296104362536       -0.94530510945137
H            6.96360650846077        4.44991055531351        0.94193910130057
H            7.00723349049623        2.47520035345347        2.45062479161256
H            5.52182729687687       -1.61030753620479        3.80690269892350
H            4.12042225428763       -3.64819479470089        3.55158674264427
H            2.59341935047119       -3.82668765499334        1.60770464370461
H            2.44316198453980       -2.00516924392170       -0.01047738903322
H            4.54994961425462        0.38909307271765       -2.43828088601409
H            3.06027273380147        0.28556833501048       -4.42774222108954
