51
 energy: -80.577833657518 gnorm: 0.000068475344 xtb: 6.7.1 (edcfbbe)
C            5.90004898658727        0.00003921431691        0.10510835746322
C            5.22858218493567        0.00010076675025       -1.10635124995121
C            3.84527319999848        0.00009150352680       -1.13282567110782
C            3.13220290564520        0.00002057166004        0.05925561953306
N            1.70830164983913        0.00001051812550        0.03638055612655
C            1.03805957039228        1.21032773686655        0.01272746769189
C            1.75178620723748        2.41165362847990       -0.01395511070466
C            1.09427919579191        3.62430770777264       -0.04747398059777
C           -0.28913689701945        3.66903641857027       -0.05926268383749
C           -1.00254918818403        2.48485437290520       -0.03217429137010
C           -0.35830313993917        1.25779225706786        0.00460869238737
C           -1.19193951004236       -0.00001336959800        0.06114559364026
C           -2.25923692811095        0.00001553332622       -1.01660688603157
C           -2.08559043903687        0.00006145372923       -2.38357975283041
C           -3.21240289653392        0.00007890454408       -3.19473351783241
C           -4.48798776887206        0.00005322116361       -2.64770396926665
C           -4.67217005671564        0.00000810288425       -1.27499852470654
C           -3.54911068427188       -0.00001102970027       -0.46380233825357
C           -3.41788382534418       -0.00005500225997        0.98042851531440
N           -4.36312926674709       -0.00008644450004        1.90640024587136
C           -3.92323419744226       -0.00012251351841        3.16101903749014
C           -2.57306485848943       -0.00012745239013        3.48160902276856
N           -1.61707144666922       -0.00009444645957        2.55243983681884
C           -2.04621431874903       -0.00005856227513        1.31025310688139
C           -0.35828336482762       -1.25780204850956        0.00452283494369
C           -1.00250974336360       -2.48487186300267       -0.03234475518083
C           -0.28907844312516       -3.66904049285476       -0.05952190210205
C            1.09433697479815       -3.62429004499208       -0.04773984181914
C            1.75182460426008       -2.41162786470091       -0.01413597402166
C            1.03807868525028       -1.21031548235032        0.01264054834996
C            3.80434730005961       -0.00004109943911        1.27425798958378
C            5.18802519257520       -0.00003171072425        1.29318097962681
H            6.97961620823751        0.00004540470158        0.12290271331234
H            5.78304923408804        0.00015571465968       -2.03299419474114
H            3.31006918329032        0.00013954671089       -2.07101074695568
H            2.83096175752202        2.38941551686707       -0.00590130997899
H            1.66829421418869        4.53884743619219       -0.06484090737988
H           -0.80807604744889        4.61464133290697       -0.08595330477059
H           -2.08337272118975        2.50837239762886       -0.03910122240625
H           -1.09434739627181        0.00007833757795       -2.81263377955796
H           -3.09424907458116        0.00011378879557       -4.26840882613598
H           -5.34688585920317        0.00006880859260       -3.30261025084403
H           -5.65798190145353       -0.00001222476427       -0.83667429004066
H           -4.68583889887790       -0.00014516484859        3.92759308290020
H           -2.23329512244167       -0.00015353701619        4.50775204496462
H           -2.08333284858932       -2.50840683123894       -0.03926899855058
H           -0.80800256792236       -4.61465174726858       -0.08627837960172
H            1.66836675957602       -4.53881908197766       -0.06517908864625
H            2.83099981076665       -2.38937250587543       -0.00608905535725
H            3.23614417099676       -0.00009629236914        2.19241838940142
H            5.71163041544631       -0.00008038368110        2.23751116950527
