  51
        -80.50411180
 C          5.7861410454        0.0726833642        0.5937929531
 C          5.4253890569       -0.2410415441       -0.7062486376
 C          4.0896271562       -0.2879287622       -1.0651401017
 C          3.1136038533       -0.0231727762       -0.1127700884
 N          1.7311078487       -0.0586294407       -0.4445546262
 C          1.0884075711        1.1287768388       -0.7389230087
 C          1.8204710211        2.2851357735       -1.0219672688
 C          1.1718511741        3.4529909170       -1.3636090716
 C         -0.2130921894        3.4920089965       -1.4356343373
 C         -0.9464005218        2.3581417169       -1.1403113695
 C         -0.3117626550        1.1752991156       -0.7929397114
 C         -1.0827177703       -0.0257332809       -0.3337248170
 C         -2.5316728196       -0.0514604257       -0.7480248203
 C         -3.0599601425       -0.1515106621       -2.0098617886
 C         -4.4471152796       -0.1592073095       -2.1562655372
 C         -5.2743580399       -0.0674006408       -1.0419028235
 C         -4.7581357968        0.0344760414        0.2338645606
 C         -3.3678215574        0.0434892947        0.3901654384
 C         -2.5605406407        0.1361932792        1.5520617812
 N         -2.8632343590        0.2482286411        2.8680238043
 C         -1.8710437359        0.3204479574        3.7357637398
 C         -0.5477352577        0.2867242950        3.3626729038
 N         -0.2236370633        0.1736596544        2.0390921162
 C         -1.1960897376        0.1022261619        1.1912998331
 C         -0.3293562020       -1.2978964562       -0.5883211937
 C         -0.9869265095       -2.5096658117       -0.7364202457
 C         -0.2774166523       -3.6924293813       -0.8255531961
 C          1.1063516789       -3.6705987876       -0.7312863875
 C          1.7781667731       -2.4750921816       -0.5861224282
 C          1.0725076829       -1.2700079328       -0.5339690814
 C          3.4725920610        0.2933427179        1.1903681839
 C          4.8104507699        0.3409712489        1.5397954082
 H          6.8294460821        0.1092555744        0.8689200505
 H          6.1856586240       -0.4474003222       -1.4447260806
 H          3.7976151653       -0.5242635006       -2.0780431476
 H          2.8985279046        2.2598259445       -0.9735139978
 H          1.7504604121        4.3388530308       -1.5786581386
 H         -0.7182147083        4.4058660617       -1.7073667233
 H         -2.0252701274        2.3846191846       -1.1702666108
 H         -2.4146994574       -0.2232787696       -2.8742129054
 H         -4.8796788064       -0.2378138533       -3.1420386116
 H         -6.3463559187       -0.0770057035       -1.1803700307
 H         -5.3992536975        0.1054370086        1.0984464808
 H         -2.1419843441        0.4095558566        4.7778191038
 H          0.2625738100        0.3442468014        4.0678428858
 H         -2.0658520195       -2.5191432930       -0.7721208801
 H         -0.8003399716       -4.6283505759       -0.9468100729
 H          1.6664896893       -4.5927535348       -0.7725794314
 H          2.8543943641       -2.4700839346       -0.5083504197
 H          2.6951328486        0.4966968144        1.9114586734
 H          5.0922077985        0.5870469787        2.5524617597
