101
 energy: -156.614446733319 gnorm: 0.000031975788 xtb: 6.7.1 (edcfbbe)
C           -4.94085296964389        7.12175588239387        0.49782313006334
C           -4.49723421672675        6.49826927520838       -0.65660682597486
C           -3.73247850643220        5.34933696539489       -0.57645837520987
C           -3.40179146231905        4.80085822747315        0.66157760425681
C           -2.61790358569578        3.56074192823666        0.73845113585155
C           -1.53573167485720        3.33869203328964       -0.11067434941279
C           -0.84461789649725        2.14441788835518       -0.08684740409030
C           -1.22401340291943        1.13024469919631        0.79011763819012
N           -0.59452785388499       -0.12454263315807        0.75784053764404
C            0.78775215303324       -0.20160173082012        0.56309628384698
C            1.63008946373534        0.73550542093997        1.16139528481139
C            2.99403758033413        0.67070711104009        0.97165850878512
C            3.56521794502733       -0.32687808512773        0.18291755059009
C            5.01995295116143       -0.39194676112004       -0.01047205064511
C            5.54913787157035       -0.70907972876189       -1.26945156911399
C            6.90764896643685       -0.77253926048909       -1.50013346152639
C            7.76222041435042       -0.50821086158481       -0.43921796347075
C            7.24950935766834       -0.21264015793478        0.84468079785812
C            5.88074536864964       -0.14825492362833        1.05235354771123
C            8.38525295663944       -0.04601783236734        1.70816033999725
C            8.52410129308321        0.26709874991457        3.05369543220731
C            9.79579953271539        0.37758985817064        3.57922800895844
C           10.92030351895237        0.19522749069332        2.77729501320011
C           10.80770576550178       -0.11699423730433        1.43600493849981
C            9.53206516838016       -0.25348331046987        0.90760423493892
N            9.14103330292099       -0.53144070341951       -0.38749400403767
C            9.99791745495965       -0.79241330156921       -1.46573516463923
C            9.84404219966491       -0.10167183118045       -2.66438050160684
C           10.68822822710063       -0.36621289746025       -3.72671241849493
C           11.69507209223832       -1.30898700634208       -3.60151597786045
C           11.85262584741771       -1.99351609087534       -2.40784111407508
C           11.00663343706695       -1.74369751244278       -1.34335861623522
C            2.71688941395807       -1.25739124889841       -0.41478415325650
C            1.35114747514170       -1.19824756931494       -0.23294533696820
C           -1.39094543081559       -1.26856450246167        0.81028039726898
C           -0.92712474318762       -2.46794635058550        1.35625954167592
C           -1.75834820058617       -3.57299980155538        1.41769066336579
C           -3.06729160660778       -3.50832075830778        0.97406052934061
C           -3.54209672998516       -2.31184692129447        0.44268066264618
C           -4.93473971337467       -2.14028680029323        0.02963223869806
N           -5.34627928124040       -0.88759552069383       -0.14411531447330
C           -6.62280537522800       -0.72654364812964       -0.47033549108474
C           -7.10767408420483        0.64558427631541       -0.62493850426946
C           -8.40727346304155        0.89201515270317       -1.06147537235595
C           -8.85472344383306        2.19219515469771       -1.19663451498304
C           -8.01377818784074        3.25268010572310       -0.89571921844997
C           -6.71968862935144        3.01337298564765       -0.45932309611917
C           -6.26520249805445        1.71592285952930       -0.32529464874104
N           -7.47216075085666       -1.73473392729929       -0.65096323237367
C           -6.97303668065928       -2.95481668151291       -0.47121475890770
C           -7.86705165715171       -4.09662525593518       -0.66633185946404
C           -9.21150202441116       -3.89108811111547       -0.96934442649881
C          -10.05213398910726       -4.97187145994559       -1.15125241645731
C           -9.56066079124850       -6.26279145802443       -1.03355142436038
C           -8.22363859212187       -6.47238282960843       -0.73303690164396
C           -7.37760408000102       -5.39610500802838       -0.54933978848978
N           -5.71333121924903       -3.20548388860574       -0.11802687254017
C           -2.69798070546047       -1.21561865823002        0.33711050401694
C           -2.27403844418458        1.36605559378299        1.67798666157678
C           -2.96033813767380        2.56078121357675        1.64764248969107
C           -3.85416487312734        5.43659767365448        1.81578043604055
C           -4.61436851398049        6.58827661748441        1.73354683461643
H           -5.53842122008123        8.01918826640057        0.43475090457406
H           -4.75285170778484        6.90627034257325       -1.62393587585698
H           -3.40775397791962        4.85492848607102       -1.48063510485727
H           -1.23248720240180        4.11243524594181       -0.80077097237415
H           -0.01860448843867        1.98099479034835       -0.76370266966276
H            1.20324466257079        1.51534991671699        1.77534974558765
H            3.62865084155606        1.41399732731996        1.43148643254140
H            4.86966123309387       -0.89100292507203       -2.08897220300420
H            7.28981057571431       -1.02901629473048       -2.47682855064176
H            5.48986146212223        0.06228648379918        2.03643462834125
H            7.65222904242225        0.42387954342256        3.67084869678779
H            9.92627390027111        0.61780912304521        4.62394667053295
H           11.90270081355095        0.30392512977194        3.21285481784164
H           11.68544227157047       -0.23838668658250        0.81915100479988
H            9.07222686277866        0.64857508146803       -2.75061531606244
H           10.56446106703896        0.17299093865218       -4.65428480855849
H           12.35507697770095       -1.50971445012581       -4.43185789221897
H           12.63353928526571       -2.73275847294484       -2.30728492415858
H           11.11194549972439       -2.29126704118624       -0.41864420513284
H            3.13480752372418       -2.04690944221310       -1.02199413651488
H            0.70955784901276       -1.92267449517837       -0.71317095896891
H            0.08112808476514       -2.52652746280095        1.73903702352924
H           -1.38013140732667       -4.49251727633161        1.84003044265176
H           -3.72866139595472       -4.35643700287527        1.04626595216602
H           -9.04719859740957        0.05423190935262       -1.29048124782235
H           -9.86225785717264        2.38273227151641       -1.53680038743287
H           -8.36683190977157        4.26833849109154       -1.00038047281452
H           -6.06610511507857        3.84078900800281       -0.22392129875512
H           -5.26149420591732        1.51298971122249        0.01502900009001
H           -9.57572822165249       -2.87943741968216       -1.05520475854002
H          -11.09444109976287       -4.81117996930068       -1.38531990876623
H          -10.22037000937034       -7.10635734099426       -1.17626909783269
H           -7.84298136405980       -7.47932517184244       -0.64262988064660
H           -6.33387070358816       -5.53832072696734       -0.31696094627723
H           -3.08404172191177       -0.31357507266528       -0.10947064113083
H           -2.56338445944886        0.59312504924980        2.37474525517153
H           -3.79341405130679        2.71128441620074        2.31851143865411
H           -3.59156197158563        5.03374792221215        2.78319395333334
H           -4.95402260718824        7.07300089978677        2.63745547291255
