111
 energy: -152.354768414851 gnorm: 0.000034938671 xtb: 6.7.1 (edcfbbe)
C            7.93239125903844       -2.62181048737900       -2.28279701144631
C            7.55055290020482       -1.13427429554289       -2.33029520378128
C            7.43372406873897       -0.67427956277929       -3.79158034371705
C            8.67494928141015       -0.33289934301167       -1.66681749393713
C            6.20913769348504       -0.94548410357614       -1.63909298674363
C            5.08654278893252       -1.61903427677222       -2.13972342372169
C            3.83220960981075       -1.51371444970752       -1.57273467241083
C            3.69245784733499       -0.70979512346794       -0.44938464695221
C            4.80198420537256       -0.00067457810325        0.06088966774620
C            6.04924326989908       -0.12227724188366       -0.52980900522549
C            4.31468329665049        0.76593228094113        1.18043977260992
C            4.92826893515691        1.63071157784023        2.07202777132782
C            4.18129651497318        2.22007485493072        3.08617598209017
C            4.78829155525211        3.18382352134075        4.09387586037248
C            4.63390901332408        2.59795895650505        5.50580062964986
C            4.05321661097391        4.53027432718111        4.00624458586168
C            6.27795098530117        3.43799327762654        3.84353357685955
C            2.81997914108565        1.90233676171515        3.18483271057101
C            2.18364133155331        1.04496154242567        2.30952633381464
C            2.93432486719032        0.48558515025652        1.28434428989401
N            2.56963432379073       -0.40115858699557        0.29174561140091
C            1.28733913231267       -0.92021678230271        0.08145073987657
C            1.11701472377542       -2.28579377549518       -0.07762652811399
C           -0.15761300410248       -2.83594161004851       -0.27866026844501
C           -0.25711785103705       -4.27403124748534       -0.53049074258648
O            0.73011541118023       -4.89970026748321       -1.01273612982401
C           -1.49369403156690       -4.96163838978226       -0.21777510016233
C           -2.41555115299623       -4.51347508223033        0.74991836795422
C           -3.54282964311445       -5.25902716920596        1.00410406852183
N           -3.81893587261012       -6.40141450221931        0.38530950366351
C           -2.94328785133155       -6.86003081422026       -0.50227977988108
C           -1.78103182624915       -6.20269942987434       -0.82717574840498
C           -1.25680730622762       -1.96702575498625       -0.34815450271849
C           -1.08241911788313       -0.60060305085936       -0.17342797167416
N           -2.18162760511690        0.25972477471272       -0.29616638331925
C           -3.40139762460845        0.11338975590993        0.33060573856381
C           -3.81217987728306       -0.80524104027781        1.28590735856878
C           -5.10088836721716       -0.70665029893780        1.76976123351804
C           -5.99839024635223        0.28333532988581        1.34660923370914
C           -7.40469219751312        0.29864786116280        1.92526585109733
C           -8.09329774798552       -1.03575461493023        1.59928861459839
C           -7.32228847979846        0.48282500673583        3.44834842599104
C           -8.26535115552653        1.42974006633683        1.35400998597845
C           -5.56271660864020        1.22033880506469        0.41629597572565
C           -4.27435820772942        1.14157840189587       -0.08743876659592
C           -3.53237454258539        1.94648583124858       -1.02490208128957
C           -3.85550323097180        3.07148027852691       -1.76639360782528
C           -2.91134165851767        3.62848084669598       -2.62141371668743
C           -3.19443108862594        4.86831948664666       -3.45550738571027
C           -4.60499623470108        5.42125070726660       -3.22993353933721
C           -2.18623326110481        5.96556233233999       -3.08062578528096
C           -3.05125001358437        4.51678863608882       -4.94429717277702
C           -1.65548847198762        3.01467204797461       -2.72095125092183
C           -1.30795362151516        1.89305872099719       -1.99466247878652
C           -2.24971373039487        1.36385592910074       -1.12301397843798
C            0.18534677416621       -0.06510759069477        0.05247741176926
H            7.19734315526730       -3.23893215416365       -2.79208281384337
H            8.00320830848140       -2.95977102906728       -1.25063064402683
H            8.89655178551352       -2.77475676449976       -2.76304288282319
H            7.13817749362886        0.37222390232399       -3.83482864511639
H            6.69731234186182       -1.25943794702351       -4.33522604618797
H            8.39251048167360       -0.78382481042318       -4.29378429580350
H            9.60709786179290       -0.51201704798302       -2.19877335612607
H            8.46925746955262        0.73445581360172       -1.70193798802028
H            8.81586639946742       -0.63859319471095       -0.63262233047931
H            5.19088752591631       -2.25098808906260       -3.00796797705181
H            2.99203571919502       -2.04365079277504       -1.99554750759614
H            6.87575493056957        0.43026190127222       -0.11657523388226
H            5.98126910759972        1.82646038086352        1.96285144646348
H            5.08174095062956        3.26711348925647        6.23742867610381
H            5.13303844227047        1.63295093127875        5.56979824032446
H            3.58880310575398        2.45866961257477        5.76789831732740
H            4.13643632014898        4.93961799481782        3.00132507024779
H            2.99884543481127        4.42542529438978        4.24583263258961
H            4.49148448489023        5.23951884407278        4.70510915118790
H            6.65415912841848        4.13907455880005        4.58583814703686
H            6.44142236641907        3.87198397723537        2.85971748117550
H            6.85292088639742        2.51894216242017        3.93099596638348
H            2.23197864094267        2.33619612795170        3.97847942104140
H            1.13759677676608        0.81028478421046        2.43338947749870
H            1.96092608735519       -2.95636958005164       -0.02358598336747
H           -2.21874225883079       -3.62326264408748        1.32562975416050
H           -4.26450744205936       -4.94430997412450        1.74651949099314
H           -3.19892167104142       -7.80212045978303       -0.96999662620927
H           -1.09253131395535       -6.61142984711457       -1.55052340843478
H           -2.23229960485840       -2.34387123734098       -0.61394364224422
H           -3.14470772333457       -1.57049830909722        1.64952022180698
H           -5.41699373914194       -1.42722536155779        2.50775732877209
H           -9.11101128530220       -1.03389803634078        1.98381603705070
H           -7.56555943239449       -1.87624718772446        2.04134556903657
H           -8.13167553591642       -1.18700042015540        0.52214784897232
H           -6.78059427706669       -0.33259985295598        3.91950353012877
H           -6.81369663169158        1.41458986626295        3.68823628080548
H           -8.32297922022305        0.51618547751523        3.87382737142755
H           -9.25944641489018        1.38380677852973        1.79407749727204
H           -8.37205882121429        1.33401335284431        0.27585272114310
H           -7.84060229594105        2.40309702456927        1.58856015431412
H           -6.20518780522412        2.01448118507602        0.07605417439222
H           -4.84162182214431        3.49189743934702       -1.66681175417144
H           -4.75258637205601        5.70578424404948       -2.19063278019502
H           -5.36178761994874        4.69369726532948       -3.51431278752160
H           -4.74719391069432        6.30851512101752       -3.84361715947714
H           -2.26617768680571        6.20446239135532       -2.02187118397651
H           -1.16522625386602        5.65506425000473       -3.28401410783898
H           -2.38762692839926        6.86785547385070       -3.65402684025789
H           -3.27638052065243        5.38775453352909       -5.55616105516595
H           -2.04354725033926        4.18689499244438       -5.18103577663504
H           -3.74231325467147        3.71950217776659       -5.21137375740694
H           -0.91865087723583        3.42393273440605       -3.39439348351296
H           -0.33628837141635        1.43934017438023       -2.11671356988903
H            0.31326496626129        0.99783386146322        0.17679091235841
