  111
       -152.36497505
 C          7.9960303576       -2.8774184323       -2.0560271015
 C          7.6313602000       -1.3950685501       -2.2195035804
 C          7.5591685987       -1.0386086400       -3.7110692157
 C          8.7451113662       -0.5578875806       -1.5846210296
 C          6.2750341444       -1.1453101555       -1.5771691316
 C          5.1577709436       -1.8327994478       -2.0692503528
 C          3.8905471243       -1.6800916915       -1.5445148112
 C          3.7302133145       -0.8144427083       -0.4738316217
 C          4.8325711063       -0.0895586058        0.0220054140
 C          6.0965498256       -0.2600324563       -0.5273147692
 C          4.3311069735        0.7459032584        1.0786155443
 C          4.9444119429        1.6432844103        1.9423162413
 C          4.1916531069        2.2948693054        2.9050878898
 C          4.7951040561        3.2937598700        3.8813985446
 C          4.5764668230        2.7934293138        5.3163331673
 C          4.1097885472        4.6548155297        3.6942740442
 C          6.2994951027        3.4858765690        3.6703215394
 C          2.8222816776        2.0111337761        2.9868599571
 C          2.1873396099        1.1234380589        2.1416874469
 C          2.9456896638        0.4972494378        1.1648121414
 N          2.5894793971       -0.4491945608        0.2205937651
 C          1.3136272709       -0.9651488575        0.0091260751
 C          1.1314284710       -2.3358832557       -0.1466197052
 C         -0.1431767787       -2.8483999326       -0.3586320252
 C         -0.3011219337       -4.3140689191       -0.5229378952
 O          0.5729509654       -5.0191366516       -0.9814245875
 C         -1.6108611422       -4.8695413839       -0.0752267844
 C         -2.2003720886       -4.4533506058        1.1168644861
 C         -3.4134449802       -5.0153341344        1.4808544115
 N         -4.0430519658       -5.9212745952        0.7530905111
 C         -3.4752610469       -6.3283081195       -0.3688295285
 C         -2.2589460288       -5.8452703446       -0.8266084505
 C         -1.2385576454       -1.9949626088       -0.4428979975
 C         -1.0607605250       -0.6230944615       -0.2841888781
 N         -2.1542612160        0.2358930521       -0.3724436316
 C         -3.4020017645        0.0193228004        0.1878649953
 C         -3.8523122655       -0.9950611517        1.0184252143
 C         -5.1610493318       -0.9470480345        1.4538967350
 C         -6.0426297249        0.0841462132        1.1051682986
 C         -7.4726489293        0.0345560017        1.6220287612
 C         -8.1438646580       -1.2491004427        1.1129936812
 C         -7.4572821496        0.0403462075        3.1571484554
 C         -8.3091181931        1.2272118308        1.1504151320
 C         -5.5708982875        1.1128068347        0.3066572966
 C         -4.2591538974        1.0869690209       -0.1477478379
 C         -3.4891214560        1.9904721906       -0.9576078192
 C         -3.8009418682        3.1881632057       -1.5867220842
 C         -2.8393649532        3.8387971210       -2.3415179529
 C         -3.1046311696        5.1604855346       -3.0468445021
 C         -4.5356205997        5.6631317157       -2.8335146090
 C         -2.1397807675        6.2217337360       -2.4991057557
 C         -2.8825786948        4.9839650560       -4.5557988167
 C         -1.5757020550        3.2469233513       -2.4644888423
 C         -1.2404689386        2.0558786896       -1.8525504294
 C         -2.2000226159        1.4307484150       -1.0713163429
 C          0.2133984471       -0.1136114289       -0.0478322091
 H          7.2640743855       -3.5206461440       -2.5364076469
 H          8.0383250564       -3.1390096672       -1.0006157732
 H          8.9689241858       -3.0758387500       -2.5008703363
 H          7.2660030140        0.0019997506       -3.8349936814
 H          6.8375270973       -1.6600880416       -4.2336455650
 H          8.5314527611       -1.1818274413       -4.1777909807
 H          9.6899044974       -0.7782688409       -2.0772939939
 H          8.5472858669        0.5055347154       -1.6978723136
 H          8.8555576734       -0.7907980460       -0.5281280534
 H          5.2782458076       -2.5137777494       -2.8972416395
 H          3.0563103283       -2.2168162768       -1.9693524754
 H          6.9156625634        0.3091101098       -0.1217631489
 H          6.0041175102        1.8077209546        1.8463604016
 H          5.0235315347        3.4857119906        6.0266920156
 H          5.0384699042        1.8169884751        5.4477833216
 H          3.5191918925        2.7035484537        5.5495869243
 H          4.2505140902        5.0088283478        2.6749722520
 H          3.0425241402        4.5917493108        3.8877351055
 H          4.5368907443        5.3868886594        4.3763746275
 H          6.6769489910        4.2093590119        4.3901014578
 H          6.5094795025        3.8642634755        2.6725423787
 H          6.8374488643        2.5525188778        3.8194854385
 H          2.2254695713        2.4971898858        3.7432606969
 H          1.1340363758        0.9178503372        2.2601985358
 H          1.9665561045       -3.0135101848       -0.0759349261
 H         -1.7097729916       -3.7283686538        1.7487365757
 H         -3.9095187632       -4.7241571172        2.3975548813
 H         -4.0224200291       -7.0786686261       -0.9235229201
 H         -1.8195644241       -6.2007981947       -1.7455792710
 H         -2.2176149506       -2.3826665391       -0.6717735169
 H         -3.2066430705       -1.8002007061        1.3312591001
 H         -5.5061091585       -1.7457030056        2.0921305785
 H         -9.1741410031       -1.2960987930        1.4590739634
 H         -7.6257767164       -2.1361574578        1.4663212215
 H         -8.1438390490       -1.2663927199        0.0250589241
 H         -6.9350743016       -0.8263842748        3.5524609779
 H         -6.9594425094        0.9354667226        3.5246281010
 H         -8.4749346634        0.0284333879        3.5416236116
 H         -9.3214215458        1.1356995447        1.5386595533
 H         -8.3676807113        1.2586887803        0.0649150112
 H         -7.8941932468        2.1645643391        1.5137433259
 H         -6.1967273502        1.9429431410        0.0262131381
 H         -4.7960437499        3.5840650571       -1.4754848155
 H         -4.7395557334        5.8297035173       -1.7779013687
 H         -5.2610736685        4.9564824309       -3.2311092496
 H         -4.6687537681        6.6094160373       -3.3538662684
 H         -2.2881462128        6.3458268210       -1.4287034011
 H         -1.1040917508        5.9414354973       -2.6680734430
 H         -2.3181847879        7.1782515936       -2.9855653929
 H         -3.1025601736        5.9128904477       -5.0776951590
 H         -1.8558872932        4.7057276362       -4.7773199643
 H         -3.5375806159        4.2060355372       -4.9432826500
 H         -0.8213700873        3.7303427684       -3.0660013239
 H         -0.2615717570        1.6262063735       -2.0020185239
 H          0.3505178806        0.9468622520        0.0831567589
