  30
  -58.8030865100000        1.00000000000000      !
 O          1.3334728979        3.4635168459        0.0234908536
 C          1.7310413896        2.3113024537        0.0143647686
 N          3.0820647479        2.0546783130        0.0070088744
 C          3.6403330594        0.8061435783       -0.0029811153
 C          4.9932263380        0.4708637425       -0.0142317865
 C          5.1936406390       -0.8857460249       -0.0220417430
 S          3.7204489383       -1.8008881242       -0.0134928011
 C          2.7808199294       -0.3302648296       -0.0013125921
 C          1.4052718856       -0.1990402106        0.0065973161
 C          0.5041062245       -1.3094562543        0.0094813471
 C         -0.8484199571       -1.1273656644        0.0106963488
 C         -1.7312114130       -2.3112389997        0.0139815068
 O         -1.3338361408       -3.4636123161        0.0223957668
 N         -3.0821194492       -2.0544964342        0.0075366121
 C         -3.6403502588       -0.8059659360       -0.0024393573
 C         -4.9932279174       -0.4709214882       -0.0138752729
 C         -5.1936282168        0.8857975368       -0.0218437405
 S         -3.7203362490        1.8009347594       -0.0141065735
 C         -2.7806487776        0.3302903109       -0.0012780371
 C         -1.4051001861        0.1988816911        0.0065195682
 C         -0.5040222511        1.3093253403        0.0089994895
 C          0.8484205698        1.1271981745        0.0102461787
 H          3.6916601619        2.8643209410        0.0086739919
 H          5.7943239566        1.1875615728       -0.0185818022
 H          6.1277113198       -1.4093141211       -0.0340764666
 H          0.9061650700       -2.3111353947        0.0110298432
 H         -3.6917814789       -2.8640325567        0.0087812367
 H         -5.7942647650       -1.1877904306       -0.0169045336
 H         -6.1277400805        1.4092197877       -0.0319020403
 H         -0.9061246739        2.3110170817        0.0099513833
