62
 energy: -97.588378458988 gnorm: 0.000090805962 xtb: 6.7.1 (edcfbbe)
C           -8.14047204230172        2.90786776271878       -0.02640098141858
C           -8.38501054743233        1.74858982731013        0.69327784168432
C           -7.45709605163792        0.72547200767240        0.70883104087095
C           -6.26529777569427        0.84743313013610       -0.00801569276222
N           -5.32334387923257       -0.18676747820696        0.00006065599839
C           -5.74692834690616       -1.52032576797323        0.00904113230633
C           -5.04527553927576       -2.47901883402162        0.74240182982469
C           -5.46593254977989       -3.79466900189283        0.74740649531544
C           -6.59059489214307       -4.17528495599879        0.03187154704896
C           -7.29215619605394       -3.22679992252420       -0.69606487761350
C           -6.87614652738870       -1.90969842007118       -0.71361588073228
C           -3.95903398735649        0.11112887455228        0.00061967738708
C           -3.05554875686613       -0.68442427499177       -0.70919963039647
C           -1.71023592011861       -0.39075908588094       -0.70250429793491
C           -1.21085966947761        0.70975083572718        0.00131967913667
C            0.21753330594396        1.02069375423295        0.00201732014536
C            0.66520085928254        2.34679545422919        0.02304898222521
C            2.00797071266101        2.65058579063689        0.01684868837828
C            2.98213743216273        1.64508504041540        0.00227949916666
N            4.28487669108696        1.91700532577091        0.00628175155026
C            5.17239612160049        0.94200234404454       -0.00329017633902
C            4.72135625272807       -0.43651507824163       -0.02114619233231
N            3.44718238134873       -0.71911251353914       -0.02792791907459
C            2.53193551087070        0.26726842452384       -0.01723672009840
C            1.17021174844745       -0.00036292643593       -0.02188350907469
C            5.88919893130395       -1.28578491215652       -0.02405518470892
C            6.11164811599893       -2.64774147581514       -0.03790436093421
C            7.44003884105630       -3.09906925723637       -0.03399898318338
C            8.52325009138368       -2.24619053772005       -0.01642430369764
C            8.33017932904581       -0.84569608826456       -0.00169139264232
C            9.31078652538668        0.17476000031115        0.01825623159245
C            8.93024310260796        1.50043871732175        0.03075555573471
C            7.59142252119929        1.91590498719390        0.02550252668427
C            6.60505429584445        0.94553767176088        0.00627327540772
C            7.00356642663345       -0.41616410431161       -0.00678425569094
C           -2.12288556849179        1.50203184653987        0.70566913155658
C           -3.46869305975130        1.21006700096560        0.71117111132272
C           -6.02533185319921        2.01577560346291       -0.73379646983177
C           -6.95683935099288        3.03564605665902       -0.73662572990586
H           -8.86701066234899        3.70620541237618       -0.03377153490455
H           -9.30172848202364        1.64360859905517        1.25463993385290
H           -7.64356156526543       -0.17063408846520        1.28219553331641
H           -4.17730748791511       -2.18191480812255        1.31243891171072
H           -4.91685270071807       -4.52598214107533        1.32206255571544
H           -6.91757211310541       -5.20400271080265        0.04122751494276
H           -8.16535693234999       -3.51615388467196       -1.26205980666024
H           -7.41617989756570       -1.17534091823976       -1.29292760040080
H           -3.42241718089772       -1.52634208515032       -1.27785324453550
H           -1.03457219710501       -1.00346150658081       -1.28002141343017
H           -0.05370934213836        3.15198624417338        0.01461266995622
H            2.34556489134265        3.67599425906656        0.02022772310205
H            0.86738108303261       -1.03614185644427       -0.01365944119659
H            5.29430221270273       -3.35287574549031       -0.05114256286849
H            7.61515599928968       -4.16577909618034       -0.04484638514405
H            9.52698159284992       -2.64610781160444       -0.01352625425409
H           10.35799997195055       -0.08988561182100        0.02348650787591
H            9.69749929779917        2.26224775695996        0.04565030306321
H            7.34544065757165        2.96708683693374        0.03602502181829
H           -1.76412642163110        2.33904119723146        1.28550884791810
H           -4.15243887059084        1.82285473098218        1.28014001429129
H           -5.11025170926595        2.11138515870977       -1.29950264778797
H           -6.76098796811231        3.93288599515668       -1.30513495903944
