62
 energy: -97.647202181572 gnorm: 0.000062588993 xtb: 6.7.1 (edcfbbe)
C           -8.11050582180802        2.92663350825601        0.15710518483708
C           -8.32780895563456        1.75345057620106        0.86166366691189
C           -7.40296773376462        0.72780012729836        0.81591484953626
C           -6.24413229434882        0.86023675964906        0.05137474199575
N           -5.30645114265565       -0.18107853183503       -0.00073854640540
C           -5.75247783380879       -1.50994586517562       -0.03816005838224
C           -5.07698903431542       -2.50496625434495        0.66827506677414
C           -5.52286752541136       -3.81219024303128        0.62713087886978
C           -6.64959825774304       -4.14717785998961       -0.10667246567624
C           -7.32751400084342       -3.16129563763951       -0.80562237016483
C           -6.88368045355725       -1.85297850297001       -0.77830420648900
C           -3.94167191679121        0.10331501165975       -0.01266044293640
C           -3.05056830233148       -0.69945263800224       -0.72914980965600
C           -1.70141955497467       -0.41904515270448       -0.73251689466780
C           -1.19121942905346        0.68015876953555       -0.04069317920848
C            0.24474751627447        0.97942680006944       -0.05495797067201
C            0.68888759055687        2.31852830681401       -0.13060157234860
C            2.01989626284799        2.62743549577523       -0.14902013456906
C            2.98806383572670        1.60843284911978       -0.08606928109480
N            4.30393191086625        1.94117243309625       -0.10571217721867
C            5.13726676843909        0.93963504601785       -0.04353105355923
C            4.69728467759659       -0.43968356178107        0.04218343158019
N            3.43924461575354       -0.77886937799199        0.05888168108900
C            2.55353922199020        0.25250091626786       -0.00766017748271
C            1.18064089088669       -0.03238752751062        0.00362470000989
C            5.87971815545996       -1.28739400246412        0.09391376604244
C            6.11325712781502       -2.63777293275815        0.17554241641044
C            7.44852702142116       -3.08359380420589        0.19767571176262
C            8.52154083196432       -2.22592468501089        0.13972721665938
C            8.31724236739783       -0.82957478211657        0.05423182194653
C            9.29197358423925        0.19229853481116       -0.01506849310331
C            8.91212543416819        1.51135959498984       -0.09336471965058
C            7.56427013203074        1.91772750545944       -0.11159958465603
C            6.59213319518785        0.95030361744325       -0.04764106508414
C            6.98528644550577       -0.40656702429084        0.03504656791333
C           -2.08604384286869        1.48375464223006        0.66675587642461
C           -3.43407871315347        1.19812708884815        0.69095728836479
C           -6.03393672323675        2.03991376057327       -0.66245731797580
C           -6.96013403582277        3.06362929193938       -0.60321018730872
H           -8.83306642869124        3.72780732292411        0.19889035601290
H           -9.22013707601810        1.63876097508362        1.45983610190863
H           -7.57039850980067       -0.18245943673858        1.37318142825811
H           -4.20474731424632       -2.24483883174910        1.25026434310922
H           -4.99136678232313       -4.57289839568242        1.18038211536749
H           -6.99694245438143       -5.16912102314372       -0.13329619156814
H           -8.20435734990800       -3.41357844181716       -1.38417320430599
H           -7.40888975588003       -1.08759990334832       -1.33107321601152
H           -3.42797885339824       -1.54185853056540       -1.29007436424141
H           -1.03286593681166       -1.04144308484691       -1.30874797153364
H           -0.04492816040680        3.10798348486207       -0.19728818529963
H            2.36343472165282        3.64884582014394       -0.21496202047439
H            0.88387512323296       -1.06733950336503        0.08141098950866
H            5.30013407921945       -3.34598394300803        0.22184586317915
H            7.62918939865641       -4.14702239496804        0.26200803141229
H            9.52918585056187       -2.61505200673015        0.15870434012368
H           10.33956741697518       -0.07140646764988       -0.00514716238814
H            9.67464989139038        2.27531413885101       -0.14419583039974
H            7.31028495122523        2.96486931484790       -0.17452670947186
H           -1.71489606784771        2.32286938339456        1.23655567389680
H           -4.10674545401350        1.82012857650868        1.26309717079088
H           -5.14270854835825        2.14534338358791       -1.26396208528722
H           -6.78558230405780        3.97178608313117       -1.16182341605168
