62
 energy: -97.646999417886 gnorm: 0.000072612097 xtb: 6.7.1 (edcfbbe)
C           -6.84118493631871       -3.50216443208804       -1.25719309333682
C           -7.19532980495215       -2.28750444685066       -1.82221616917111
C           -6.55518157884451       -1.12429943613271       -1.43934755862190
C           -5.55044624299139       -1.16053611493918       -0.47273452999150
N           -4.90787448991216        0.02020944440700       -0.07452073439250
C           -5.65273572872570        1.20124007811579        0.05457528843129
C           -5.11518451183059        2.42480714788917       -0.34452831565093
C           -5.85392603718152        3.58520215542370       -0.21379271764063
C           -7.13807577421078        3.54513838479192        0.30547328334798
C           -7.67885180185513        2.33113915147748        0.69770164997857
C           -6.94430461466280        1.16661958002620        0.57964037662682
C           -3.53936387025150        0.02081086408426        0.19442789951411
C           -3.01015301209538        0.83268865613895        1.20012898414147
C           -1.65743148575571        0.82921143515977        1.46470736940142
C           -0.78209312016376        0.02227814720761        0.73727773537990
C            0.65831284331491        0.02709971586377        1.01831813452594
C            1.12035288886984        0.11511092144606        2.35067053911160
C            2.45524378531591        0.12674906784296        2.64282285267195
C            3.41021300498810        0.05625333788544        1.61197045332625
N            4.73040828772506        0.08227316695557        1.92691472893124
C            5.55043579309521        0.01805960518873        0.91460632811496
C            5.09218813811959       -0.07983024177207       -0.45801612010754
N            3.82978344391610       -0.10771535577022       -0.77978197359342
C            2.95780448258560       -0.03756600942115        0.26296588468748
C            1.58125138150628       -0.05198048628548       -0.00389148266226
C            6.26318564050062       -0.13125041961362       -1.32138748530543
C            6.47868194560918       -0.22118608816744       -2.67425459728912
C            7.80783465522544       -0.23963260088145       -3.13810211618380
C            8.89214585408204       -0.16949991431184       -2.29568885955621
C            8.70646805935941       -0.07449596195926       -0.89735555452414
C            9.69473905562163        0.00881009721969        0.11036946282175
C            9.33253612576127        0.09556038498024        1.43386487010500
C            7.99028538360018        0.10867464826661        1.85861295783928
C            7.00528887015912        0.03067903717866        0.90528457652718
C            7.38033330003182       -0.05989359582218       -0.45622668904868
C           -1.31537494347356       -0.78556164800556       -0.26756317414879
C           -2.66731244659963       -0.79016793722890       -0.53564481947460
C           -5.20089982732699       -2.38503755888906        0.09631956346620
C           -5.84049280965803       -3.54413645579689       -0.29959197475642
H           -7.34131423203646       -4.40958912277849       -1.56083652343330
H           -7.97080442677990       -2.24534443315903       -2.57327172768467
H           -6.82758523669437       -0.17951034656410       -1.88701264312253
H           -4.11807202081393        2.45690238138424       -0.75928576852655
H           -5.42637918039838        4.52630438681122       -0.52813145021267
H           -7.71350462142189        4.45352295543259        0.40274434322076
H           -8.67745824512238        2.29085766580221        1.10806294685897
H           -7.36473320507494        0.22226831215619        0.89382238267731
H           -3.67040905261794        1.46458335588347        1.77586659091794
H           -1.27059136042352        1.47713607214042        2.23731707936059
H            0.39740964023603        0.15271174629869        3.15196136437159
H            2.81148933531520        0.18807896281378        3.66017080834623
H            1.27199587699747       -0.10245976567043       -1.03684673677150
H            5.65628990382191       -0.27700119979133       -3.37099136794605
H            7.97430995866240       -0.31144576806924       -4.20335626485809
H            9.89443789207813       -0.18613796109056       -2.69850863101386
H           10.73864018178477        0.00323910024746       -0.16772021571337
H           10.10514349684091        0.15756268941162        2.18678517601018
H            7.75052907278889        0.17880146036876        2.90862910312164
H           -0.66124873492864       -1.42936006244509       -0.83666805635941
H           -3.05963289840107       -1.42190892296584       -1.31908242926048
H           -4.42834319343187       -2.41964434948978        0.85077971177565
H           -5.56144685296295       -4.48572548033558        0.15075833475743
