  92
       -147.22217204
 C         -0.2108129898        2.9488985338        1.4781415768
 C         -0.2065502093        2.3171037852        0.0729880639
 C         -0.3133410810        3.4160292846       -1.0015970872
 C          1.0980975348        1.5764967518       -0.1285972588
 C          2.2884951051        2.2636900150       -0.0731680361
 C          3.5271428226        1.6304432624       -0.2436122055
 N          4.7010375128        2.3613048936       -0.1785155789
 C          5.8525515162        1.9917972785        0.4993798064
 C          6.0923557566        0.8829088747        1.2960234656
 C          7.3342083734        0.7739756058        1.8981324664
 C          8.3128443859        1.7498774649        1.7239239925
 C          8.0688119662        2.8744049711        0.9588288069
 C          6.8296549002        3.0055634499        0.3457114558
 C          6.2375400670        4.0278518499       -0.4682576277
 C          6.7042170534        5.2350025871       -0.9720063221
 C          5.8693631661        5.9823972484       -1.7804646370
 C          4.5933256098        5.5293586850       -2.1079873594
 C          4.1064581554        4.3304580021       -1.6158509615
 C          4.9239063615        3.5938704351       -0.7724135489
 C          3.5493931840        0.2448500053       -0.4912347466
 C          2.3788350149       -0.4545918874       -0.5624655248
 C          1.1313200575        0.1812340224       -0.3750294303
 N         -0.0224263545       -0.5479282342       -0.4497089815
 C          0.0692097441       -1.9570458715       -0.6773071360
 C         -0.0899723769       -2.4412762931       -1.9839428189
 C          0.0037535548       -3.8123542510       -2.2081747643
 C          0.2466545982       -4.6464349940       -1.1512739027
 C          0.4095669836       -4.1757660811        0.1717849505
 C          0.3146457974       -2.7948016771        0.3908812453
 C          0.6586547683       -5.2052492015        1.1395877397
 C          0.8648318837       -5.0578185748        2.5183384865
 C          1.0960626861       -6.1721174726        3.2961032646
 C          1.1297550916       -7.4493453589        2.7395591748
 C          0.9268364551       -7.6145320211        1.3736391568
 C          0.6964771484       -6.5048507465        0.6024997445
 S          0.4095116454       -6.4287787144       -1.1593851501
 O          1.5748004056       -6.8348217699       -1.9063892646
 O         -0.8376812140       -7.0548943556       -1.5242324863
 C         -1.2601913576        0.0153709149       -0.3089401950
 C         -2.4152313362       -0.7914294885       -0.4064737465
 C         -3.6657053712       -0.2590845362       -0.2694976261
 C         -3.8191152161        1.1129793366        0.0019953391
 N         -5.0764562633        1.6710319044        0.1637286450
 C         -6.1741155909        1.4520960777       -0.6533496427
 C         -6.2735760784        0.7058338937       -1.8174156755
 C         -7.4924916947        0.6886656065       -2.4731353164
 C         -8.5856414551        1.4045940423       -1.9904496051
 C         -8.4841691221        2.1761345690       -0.8484223842
 C         -7.2702581822        2.2105179532       -0.1749356517
 C         -6.8085063637        2.9116214815        0.9888293906
 C         -7.4203537617        3.7752146692        1.8879665380
 C         -6.6818556894        4.2547112107        2.9528590961
 C         -5.3571077521        3.8666019111        3.1406358729
 C         -4.7257873051        3.0092275930        2.2559837171
 C         -5.4495721847        2.5533646969        1.1649093658
 C         -2.6726400488        1.9100611005        0.1158401005
 C         -1.4048472599        1.3996902679       -0.0433913143
 H          0.6469582743        3.6017888652        1.6111228612
 H         -0.1697944730        2.1694183197        2.2365488365
 H         -1.1107166775        3.5369298577        1.6339058711
 H         -0.2771646256        2.9701858098       -1.9937212231
 H         -1.2473703614        3.9618205788       -0.9051870461
 H          0.5034578052        4.1262791575       -0.9105773041
 H          2.2919230431        3.3192171543        0.1487209334
 H          5.3352479387        0.1317714380        1.4600259130
 H          7.5450865209       -0.0835845319        2.5188473336
 H          9.2710864184        1.6276972364        2.2059758360
 H          8.8198781228        3.6404703128        0.8418252420
 H          7.7022489061        5.5741181565       -0.7406152499
 H          6.2128572953        6.9249091316       -2.1796293819
 H          3.9731403000        6.1207890526       -2.7645344830
 H          3.1289777062        3.9756516897       -1.9046769587
 H          4.4901058162       -0.2492529535       -0.6741745392
 H          2.3992382567       -1.5093384897       -0.7846763359
 H         -0.2770913755       -1.7519362357       -2.7913758798
 H         -0.1119114967       -4.2184967531       -3.2006723958
 H          0.4306812388       -2.3808868208        1.3811803705
 H          0.8424321614       -4.0764447515        2.9682997729
 H          1.2545138424       -6.0551559060        4.3586916729
 H          1.3127480106       -8.3072270753        3.3674435609
 H          0.9478142318       -8.5920190608        0.9172338777
 H         -2.3011285921       -1.8493258426       -0.5795713349
 H         -4.5358561557       -0.8940280056       -0.3179518148
 H         -5.4276712340        0.1662583350       -2.2144988220
 H         -7.5950451776        0.1123804510       -3.3800767373
 H         -9.5214773856        1.3635511011       -2.5271555955
 H         -9.3258367911        2.7472204798       -0.4876899724
 H         -8.4541692643        4.0563557324        1.7583913341
 H         -7.1390733699        4.9283991786        3.6617225463
 H         -4.8130701242        4.2358839872        3.9968529495
 H         -3.7090624913        2.6913712844        2.4296780693
 H         -2.8119517828        2.9648580779        0.2934256653
