  122
       -184.44640215
 C         -7.3023423119        6.0578723413        0.4099228968
 C         -7.0033329759        4.6086440906       -0.0161779865
 C         -8.3005980402        3.9031245942       -0.4533614183
 C         -6.0483201447        4.6326890655       -1.1928490036
 C         -6.4258334865        5.2686505194       -2.3675336456
 C         -5.6066029315        5.3004609149       -3.4806656314
 C         -4.3771609430        4.6663431961       -3.4353266208
 C         -3.9758698989        4.0287691475       -2.2816209379
 C         -4.7911736736        4.0182686784       -1.1440246246
 N         -4.3530995923        3.3836520969        0.0054932484
 C         -3.0464237794        2.8226731022        0.0221401768
 C         -1.9310560423        3.6674986694        0.0999792198
 C         -0.6760177657        3.1204812528        0.1038439531
 C         -0.4920338252        1.7303675055        0.0465054837
 C         -1.6125690768        0.8686375653       -0.0153151060
 C         -2.8852946822        1.4554654937       -0.0376792852
 C         -1.4098471991       -0.5593617029       -0.0492577125
 C         -2.4692267751       -1.4755930821       -0.0799761013
 C         -2.2426168686       -2.8346173265       -0.0913412365
 N         -3.3442949507       -3.7353576601       -0.0990367171
 C         -3.6810921336       -4.3711080155       -1.2804146725
 C         -2.9706671469       -4.0766679372       -2.4497518873
 C         -3.2755279578       -4.7009660269       -3.6396624257
 C         -4.3022669568       -5.6279611733       -3.6885333034
 C         -5.0193280242       -5.9057119022       -2.5395076762
 C         -4.7346602110       -5.2922768168       -1.3274115067
 C         -5.5715419366       -5.6221382626       -0.1073261249
 C         -7.0362707761       -5.2493782024       -0.4029448192
 C         -5.4536438172       -7.1299209172        0.1822931687
 C         -5.1112505277       -4.8579232594        1.1183215194
 C         -5.7672099528       -5.0456824217        2.3271512193
 C         -5.3789765900       -4.3924809137        3.4820854261
 C         -4.2956288532       -3.5319794400        3.4421863015
 C         -3.6261178991       -3.3257267996        2.2557319453
 C         -4.0285393293       -3.9704683285        1.0804509292
 C         -0.9341220436       -3.3379397592       -0.0860252374
 C          0.1191352939       -2.4650974365       -0.0648971225
 C         -0.0905009047       -1.0754398249       -0.0398115598
 C          1.0374842304       -0.2014453563        0.0013149472
 N          2.2756199935       -0.6992241367       -0.0012208698
 C          3.3274558388        0.1099752199        0.0336006560
 C          4.6361363067       -0.3954360107        0.0289262563
 C          5.7166785024        0.4593399222        0.0664114070
 N          7.0538298483       -0.0316719571        0.0629435156
 C          7.7207342855       -0.1189696211       -1.1445441485
 C          6.9935198323       -0.0380004701       -2.3374514956
 C          7.6268412271       -0.1277464052       -3.5571912814
 C          9.0002519292       -0.2967849853       -3.6081697187
 C          9.7206251526       -0.3755019894       -2.4305487766
 C          9.1090424291       -0.2960356801       -1.1873265220
 C          9.9494619396       -0.3495201308        0.0717272410
 C         10.8526592114        0.8984567271        0.0930787221
 C         10.7997816320       -1.6327334434        0.0581236458
 C          9.0979301215       -0.3308681842        1.3241892322
 C          9.6979923736       -0.4447022352        2.5703336943
 C          8.9662261558       -0.4016676530        3.7427576373
 C          7.5926612483       -0.2365421362        3.6835439878
 C          6.9707604770       -0.1129341641        2.4609310036
 C          7.7099581808       -0.1544515604        1.2733559714
 C          5.5281658975        1.8529819760        0.1104256324
 C          6.6650638623        2.6800928832        0.1426403697
 N          7.6193557893        3.3195701552        0.1676108010
 C          4.2360138526        2.3825707588        0.1192414756
 C          3.1299945020        1.5400559864        0.0820169725
 N          1.8816390906        2.0238844037        0.0923862568
 C          0.8406633338        1.2043259379        0.0494186807
 C         -5.1365186119        3.3086663996        1.1443246228
 C         -4.6363142566        2.6823891990        2.2917133084
 C         -5.3999852243        2.5798999751        3.4340315899
 C         -6.6787870248        3.1086792438        3.4584779291
 C         -7.1670200861        3.7494625348        2.3350902628
 C         -6.4202212857        3.8679286112        1.1709338360
 H         -7.7352480531        6.6220856398       -0.4113431529
 H         -6.3819087227        6.5504865924        0.7177759200
 H         -7.9987811912        6.0813744452        1.2433789801
 H         -8.0828143797        2.8789317847       -0.7506240632
 H         -8.7553736870        4.4152352121       -1.2966090245
 H         -9.0218511589        3.8786687560        0.3586624130
 H         -7.3880544793        5.7547746877       -2.4221913366
 H         -5.9298041851        5.8074932890       -4.3768045920
 H         -3.7293595745        4.6649579179       -4.2989507397
 H         -3.0209288321        3.5275364611       -2.2573354352
 H         -2.0775773972        4.7357634810        0.1501725819
 H          0.2053341578        3.7405293658        0.1569704769
 H         -3.7728380750        0.8452543972       -0.0970934801
 H         -3.4929675306       -1.1355451111       -0.0828174239
 H         -2.1754149456       -3.3482177586       -2.4195444116
 H         -2.7118750525       -4.4608679788       -4.5285901475
 H         -4.5483929583       -6.1256728819       -4.6139356719
 H         -5.8249406337       -6.6219972171       -2.5956802124
 H         -7.4092301147       -5.7962425719       -1.2643774547
 H         -7.6736326166       -5.4771557308        0.4468494325
 H         -7.1119704215       -4.1841195906       -0.6133153581
 H         -5.7812561515       -7.7158455403       -0.6718388920
 H         -6.0604877267       -7.4090911645        1.0390351264
 H         -4.4177471470       -7.3855351159        0.3973742114
 H         -6.6064709089       -5.7227889382        2.3758627558
 H         -5.9129204394       -4.5601865603        4.4048185049
 H         -3.9682830322       -3.0218060640        4.3355645874
 H         -2.7763237649       -2.6615324537        2.2341860970
 H         -0.7778262986       -4.4060380337       -0.0976457660
 H          1.1388527705       -2.8173427719       -0.0574914283
 H          4.7825991376       -1.4635511693       -0.0056709338
 H          5.9234318381        0.0965021398       -2.2999160121
 H          7.0490222973       -0.0620013485       -4.4667004465
 H          9.5084827098       -0.3610847017       -4.5580818971
 H         10.7918860592       -0.4924579561       -2.4894001397
 H         11.4848160559        0.9007404501        0.9770351642
 H         11.4883101565        0.9286464989       -0.7878668739
 H         10.2367854018        1.7957712696        0.1062040706
 H         11.4402770308       -1.6663756565       -0.8181168994
 H         11.4338190332       -1.6890390376        0.9379005853
 H         10.1512755658       -2.5068089675        0.0444824640
 H         10.7688983038       -0.5611709823        2.6359582027
 H          9.4655632113       -0.4919201979        4.6952655067
 H          7.0057782647       -0.2007275281        4.5889041935
 H          5.9003178110        0.0170772483        2.4169043618
 H          4.0836645374        3.4496796550        0.1526683590
 H         -3.6360645333        2.2784972017        2.2851625653
 H         -4.9936111418        2.0888753529        4.3053944045
 H         -7.2878153612        3.0317381868        4.3460587120
 H         -8.1601701059        4.1705914914        2.3732421882
