45
 energy: -68.627862122400 gnorm: 0.000028852754 xtb: 6.7.1 (edcfbbe)
C           -2.33477564247713        2.54652349722761       -2.57136023271099
C           -0.95040323807492        2.58460910676111       -2.61008369083606
C           -0.22027599428340        1.75707949824274       -1.77481849082213
C           -0.84705931619544        0.88731663414695       -0.89635659302312
C           -2.24320191144076        0.85255241331710       -0.86109489491070
C           -2.97795861321217        1.68697827678193       -1.70353333923711
N           -2.89592454587327       -0.00015815191960        0.00021911767197
C           -2.24296893453236       -0.85280372117139        0.86142091561842
C           -2.97749821304670       -1.68732361605185        1.70396459968397
C           -2.33408165393003       -2.54680433511960        2.57168213123432
C           -0.94969888057894       -2.58473066625540        2.61018977849693
C           -0.21979710976086       -1.75710828560658        1.77481959683898
C           -0.84681694774109       -0.88740786862124        0.89646450824728
C            0.00000001063510        0.00000836467119       -0.00000779533487
C            0.84694637616869        0.89649547396058        0.88726943018088
C            0.22005307032211        1.77492858880119        1.75698216826085
C            0.95007540043930        2.61038529984392        2.58441097081215
C            2.33445263474249        2.57189154520061        2.54626894039337
C            2.97774424322313        1.70408136751344        1.68678818541080
C            2.24309336922163        0.86144495640597        0.85246890196229
N            2.89592451914107        0.00014573103360       -0.00017355972307
C            2.24307747251892       -0.86120441375607       -0.85275237631367
C            2.97771249075946       -1.70377183667606       -1.68715528334540
C            2.33440449361591       -2.57163033300492       -2.54657498745088
C            0.95002653607072       -2.61024117184167       -2.58457253592451
C            0.22001998613016       -1.77485445098871       -1.75705921604120
C            0.84692990468074       -0.89637738563359       -0.88740286096022
H           -2.91505847794212        3.18779350414669       -3.21857589583809
H           -0.44198751846679        3.25477284037162       -3.28672532725277
H            0.85985353941764        1.78341859484637       -1.80159636074463
H           -4.05815790399823        1.65213803051118       -1.66825164195790
H           -3.90465660999342       -0.00021992752779        0.00029459946173
H           -4.05770695083882       -1.65260772453796        1.66885120743321
H           -2.91419066569257       -3.18814760733829        3.21898097950995
H           -0.44109977101990       -3.25484242931178        3.28674506832480
H            0.86033932031140       -1.78332503191584        1.80142966750491
H           -0.86007962416042        1.80154295769152        1.78335085527484
H            0.44157431257693        3.28700817842047        3.25452887068451
H            2.91465470846109        3.21927060991762        3.18744708289195
H            4.05794795166638        1.66897498731811        1.65190799469843
H            3.90465659777507        0.00019082148652       -0.00022832830632
H            4.05791685090866       -1.66857398621090       -1.65238801144991
H            2.91459431796892       -3.21895721395521       -3.18781688116051
H            0.44151267561538       -3.28690085803998       -3.25464356816962
H           -0.86011325911676       -1.80156126312837       -1.78331369907765
