45
 energy: -68.515275848816 gnorm: 0.000061974997 xtb: 6.7.1 (edcfbbe)
C           -2.45546105786045       -2.46932601535134       -2.54774302280478
C           -1.05196764235226       -2.55192461612623       -2.60237734869801
C           -0.28228145893414       -1.75288062279198       -1.77905322996413
C           -0.86068251767443       -0.86205261613049       -0.88996299219311
C           -2.27949591137816       -0.78172781807771       -0.83709236696508
C           -3.05492996633428       -1.59649202114480       -1.67692848674723
N           -2.88067744858691        0.08666347213283        0.02995901906057
C           -2.21009076432059        0.91801908191721        0.88230819744749
C           -2.91724527848379        1.77759521732809        1.73756174966023
C           -2.24824181098890        2.61448994946113        2.59288809172814
C           -0.84141432467100        2.61410394913379        2.61631924089613
C           -0.13869187733125        1.77016591672092        1.77807308933891
C           -0.78816154247611        0.91411634096108        0.90393362757751
C            0.00003175894597        0.00035417293286       -0.00093508769849
C            0.84414372296580        0.87073286324555       -0.89808290991106
C            0.24921089272644        1.77142820007149       -1.76606837921952
C            1.00333035778083        2.57816335008473       -2.59628203566026
C            2.40745499949194        2.49329794571627       -2.57066284612175
C            3.02306179150456        1.61066502143004       -1.72119001851334
C            2.26349990045973        0.78799342777747       -0.87461175274612
N            2.88069613834316       -0.09038266470146       -0.02904739422925
C            2.22609026694526       -0.92757336451243        0.83007769009846
C            2.94897053976856       -1.79452555582539        1.66440201743846
C            2.29606227083984       -2.63608240382543        2.52762557026645
C            0.89007941703859       -2.63321982897289        2.58014123891560
C            0.17191455270773       -1.78261413456856        1.76200401630224
C            0.80496411299782       -0.92144462254375        0.88083577856232
H           -3.05508441358620       -3.09403416344677       -3.19222151503252
H           -0.58057887145263       -3.23915881366860       -3.28765716222907
H            0.79574809534293       -1.81904352310349       -1.82403655772767
H           -4.13291075294178       -1.52273301384909       -1.62456897146254
H           -3.89223404789503        0.11668887856285        0.04109309415969
H           -3.99859295303511        1.76756867121854        1.70921283585410
H           -2.79570930469898        3.27406055029362        3.24895246662040
H           -0.31511894340903        3.27321643941065        3.28917579933388
H            0.94209690033517        1.77255826435448        1.79920734631552
H           -0.82943077732070        1.83931623985628       -1.78851406813549
H            0.51921427890635        3.27314272255816       -3.26468925421940
H            2.99499621161011        3.12424647293527       -3.22018182471718
H            4.10178042612329        1.53520878091972       -1.69122704026858
H            3.89221113297394       -0.12187913563144       -0.03849622783349
H            4.02952711812705       -1.78639770069506        1.61380151492502
H            2.85562728289910       -3.30097573659548        3.16792395252179
H            0.37646984441351       -3.29577518320687        3.25939558970524
H           -0.90821093678494       -1.78312708800119        1.80535901542812
