  76
       -116.18097985
 N         10.5222014095       -0.7695884355        0.8901470332
 C          9.4009513191       -0.6168520261        0.7002946674
 C          8.0205340098       -0.4229970413        0.4746890282
 C          7.4778744333       -0.6763674345       -0.7863473418
 C          6.1290877307       -0.4831788486       -1.0017208171
 C          5.3015592572       -0.0327805042        0.0257525080
 C          3.8606057169        0.1808893282       -0.2160833227
 C          3.3384834173        1.4820874089       -0.1987459235
 C          4.1620136663        2.6180319786        0.0197569546
 C          3.6366578357        3.8722770246        0.0697111090
 C          2.2506391208        4.0684707498       -0.0896951609
 C          1.4316164243        3.0092132731       -0.3320763836
 C          1.9418852930        1.6874653156       -0.4239290809
 C          1.1106865552        0.5928432214       -0.7050007033
 C         -0.3234279118        0.8019570651       -0.9790013813
 C         -0.7310088265        1.5339985845       -2.0933311247
 C         -2.0727069006        1.7082749519       -2.3849036448
 C         -3.0176003255        1.1324550198       -1.5510205701
 C         -2.6124116550        0.3991908090       -0.4268690923
 C         -1.2786165032        0.2356423665       -0.1339681540
 C         -3.8097784690       -0.1889225561        0.2928333559
 C         -3.6520496784       -1.6957779979        0.2134982030
 C         -4.1953597624       -2.4182236239       -0.8404262025
 C         -3.9707007485       -3.7797759251       -0.9476464539
 C         -3.1908701561       -4.4344683359       -0.0106080129
 C         -2.6388881419       -3.7190083805        1.0385284498
 C         -2.8666530840       -2.3597632038        1.1494482887
 C         -3.9847204344        0.3111548880        1.7106308640
 C         -4.7665539253       -0.4025932159        2.6114897918
 C         -4.9817378281        0.0793754086        3.8898656546
 C         -4.4232689404        1.2835618495        4.2835751369
 C         -3.6515132559        2.0038074620        3.3886313106
 C         -3.4369689028        1.5233823153        2.1087804494
 C         -4.9537704120        0.3476977940       -0.5453613501
 C         -6.3090712646        0.1789484802       -0.3610154234
 C         -7.1831144644        0.7806830793       -1.2566424450
 C         -6.7062852293        1.5394345668       -2.3148369720
 C         -5.3453427713        1.7181420603       -2.5019193106
 C         -4.4691571608        1.1205119990       -1.6109032566
 C          1.6358580562       -0.7092673132       -0.7280848209
 C          0.8303064570       -1.8403663482       -1.0268635571
 C          1.3442624888       -3.1002468336       -1.0053138386
 C          2.7007085846       -3.3097218407       -0.6877834842
 C          3.5154594678       -2.2505930334       -0.4304718552
 C          3.0247664430       -0.9183685034       -0.4608328758
 C          5.8523920256        0.2168248050        1.2818256172
 C          7.1989162064        0.0235652790        1.5113602390
 H          8.1194586338       -1.0202035773       -1.5843669043
 H          5.7042734678       -0.6743268995       -1.9764028337
 H          5.2243881156        2.4711322294        0.1463756530
 H          4.2769029183        4.7253321365        0.2387069662
 H          1.8459337697        5.0673661093       -0.0212100863
 H          0.3699261104        3.1606671770       -0.4547364096
 H          0.0210415471        1.9557833203       -2.7447544625
 H         -2.3737776079        2.2731534735       -3.2544932842
 H         -0.9607977550       -0.3189891771        0.7362038868
 H         -4.7981229892       -1.9153311689       -1.5822615129
 H         -4.4061475640       -4.3296746972       -1.7692178932
 H         -3.0153795107       -5.4966009837       -0.0958293617
 H         -2.0267208049       -4.2208215933        1.7737705890
 H         -2.4393973141       -1.8115076755        1.9764411665
 H         -5.2005164148       -1.3461683708        2.3135257118
 H         -5.5873621631       -0.4879219300        4.5816213590
 H         -4.5886086546        1.6580636155        5.2828107898
 H         -3.2150223232        2.9460745128        3.6863107367
 H         -2.8373653703        2.0943275011        1.4149911047
 H         -6.6871549600       -0.4091156122        0.4618280813
 H         -8.2480352606        0.6561875190       -1.1268713905
 H         -7.4051492395        1.9995339496       -2.9979001427
 H         -4.9758266013        2.3123097234       -3.3244451574
 H         -0.2092138706       -1.6887116583       -1.2739142018
 H          0.7136950706       -3.9476252576       -1.2303506938
 H          3.0894642776       -4.3168708636       -0.6582425752
 H          4.5561696154       -2.4132304390       -0.1920406828
 H          5.2112670794        0.5604027846        2.0805931380
 H          7.6246168902        0.2153594218        2.4853931309
