76
 energy: -116.162370779415 gnorm: 0.000113812962 xtb: 6.7.1 (edcfbbe)
N           10.55277764265173       -0.89013784230823       -0.80234741633212
C            9.42956098618835       -0.69948296226682       -0.63710898519973
C            8.05867740381222       -0.46801179228865       -0.43712774484888
C            7.42269678025677       -0.93528257870855        0.72178737816481
C            6.07901238804387       -0.71493429051692        0.90700374793219
C            5.31918157975779       -0.00478029558198       -0.03857033963913
C            3.90298533107701        0.23678882146811        0.16877388082047
C            3.02634345481191       -0.85370494320419        0.47018399627368
C            3.47415445994556       -2.17904080338861        0.47425652439741
C            2.64598159819814       -3.22705935535545        0.86303572716043
C            1.35278017313506       -2.96324956064086        1.26728554173023
C            0.86033907770275       -1.66410470707169        1.20564005036230
C            1.64830617293283       -0.60290558545209        0.74524320823102
C            1.11750242058067        0.71421142850100        0.58166668768161
C           -0.29870663002581        0.95853242236593        0.80775125320651
C           -0.71825030834388        1.96077082971522        1.69693636409082
C           -2.05496606029417        2.18516806281102        1.95476388372899
C           -3.00622242094222        1.41497131881238        1.29785859000761
C           -2.60004829333320        0.42640137949228        0.38419633268684
C           -1.26971359980778        0.18435098174269        0.15017752057716
C           -3.80474661115784       -0.28320251258840       -0.20601013539458
C           -3.98519576897838       -0.03858276937563       -1.69283775428729
C           -4.80986905164858       -0.87385305442688       -2.43874913451331
C           -5.03440402175619       -0.62635723809539       -3.78086293890156
C           -4.44229410562750        0.46357622318561       -4.39684152858054
C           -3.62791786924755        1.30491803532128       -3.65900736605912
C           -3.40470984134052        1.05894056720644       -2.31502580755246
C           -3.67884546360752       -1.75635608147092        0.13206740775802
C           -2.94880715651767       -2.60130679435229       -0.69708494484768
C           -2.77522288824917       -3.93336427684533       -0.36742054347513
C           -3.32127702028457       -4.43892388267475        0.80059388199192
C           -4.03674263785459       -3.60080314801755        1.63833572294743
C           -4.21077812503902       -2.26744964712808        1.30900398253931
C           -4.94418561349027        0.41824269675296        0.51062142021900
C           -6.30058777902628        0.20737808320151        0.38747951326948
C           -7.16930817776799        0.99296918054867        1.13462969063319
C           -6.68616877899098        1.97657566745922        1.98600789679351
C           -5.32519924957475        2.19973356035217        2.10989662046736
C           -4.45271207042068        1.41691376065370        1.36750479978729
C            1.97912560879377        1.78998009532923        0.20499886917939
C            1.48226961837023        3.06907732954108       -0.06999675098951
C            2.33089761576615        4.13901824440239       -0.33324619213292
C            3.69810766024737        3.94960070530329       -0.31851478748592
C            4.21570194769071        2.67323700101100       -0.12177734036434
C            3.38234537656902        1.56635860561512        0.07132470369848
C            5.97336491207077        0.46527706222960       -1.19042379240035
C            7.31188987945779        0.23184956935954       -1.39542978528232
H            8.00044099035830       -1.46325048488070        1.46697241103399
H            5.60235799509575       -1.05393580537180        1.81502952095103
H            4.48385915383040       -2.40050680238815        0.16463226451899
H            3.02702904713452       -4.23743187757331        0.86092548336720
H            0.71268708572261       -3.75936513607566        1.61700548385061
H           -0.15287746320044       -1.47510931185965        1.52501662597319
H            0.03149052831199        2.53253271494534        2.22447396631941
H           -2.35368625498204        2.94251524111762        2.66427896040853
H           -0.95918604042019       -0.56486184998967       -0.56265775520295
H           -5.27063542400045       -1.73085480334269       -1.96876955809446
H           -5.67527464102549       -1.28685293165485       -4.34729165045059
H           -4.61658060824513        0.65630905671058       -5.44543166618691
H           -3.16417699419606        2.15992320300971       -4.12987712056161
H           -2.77196564338927        1.72656849543781       -1.74848432468890
H           -2.52257136186915       -2.21750957359976       -1.61283645553241
H           -2.20860626302442       -4.57755869700115       -1.02454370094248
H           -3.18760053778163       -5.47971543617489        1.05766987013023
H           -4.46185968732363       -3.98463540142465        2.55471255235089
H           -4.76687390730005       -1.62088475056186        1.97246115157797
H           -6.68626578128925       -0.55532482606406       -0.27242043265670
H           -8.23481302901486        0.83564687534000        1.05081494514565
H           -7.38126335595217        2.57510156054302        2.55714363940718
H           -4.95122120968960        2.96716022739617        2.77127419937170
H            0.41554488725809        3.23109278888874       -0.08148430256469
H            1.91422794220781        5.11561423699896       -0.53039564178183
H            4.37072547293862        4.78000977517888       -0.47311375215811
H            5.28659951059203        2.54113792016147       -0.11356409698849
H            5.39955698581065        0.98138012302183       -1.94604963986592
H            7.79817906072596        0.57930977382553       -2.29575512461520
