76
 energy: -116.228624170844 gnorm: 0.000038600040 xtb: 6.7.1 (edcfbbe)
N           10.51263926751928       -0.76684154426449        0.97573905618742
C            9.39361094473940       -0.60607799217145        0.77388170783250
C            8.01836890300545       -0.40868786110139        0.52640038911615
C            7.50409744605899       -0.60855317864313       -0.75696632899617
C            6.15810150733215       -0.41632799602488       -0.99165613084152
C            5.30490354106744       -0.02071346602199        0.03791202725734
C            3.86505916346822        0.18593684469637       -0.22417055172447
C            3.32976168694858        1.48182429077445       -0.19138375867092
C            4.13989870748611        2.62092976967612        0.06120662471903
C            3.60429972286803        3.87076355341921        0.11962362804617
C            2.21965961190991        4.05888962566042       -0.06350757684848
C            1.41282928146007        2.99627566978522       -0.33233337031885
C            1.93402404300793        1.67892214408777       -0.43301409628377
C            1.11598631185502        0.58108358229635       -0.74100943943340
C           -0.32168887606613        0.77978462224952       -1.01434422065094
C           -0.73679555681170        1.50344647416873       -2.13146642087605
C           -2.08066352677736        1.67794425708792       -2.41389773162754
C           -3.02074579651454        1.11217342641089       -1.56723237973983
C           -2.60915402406572        0.38398929934880       -0.44151296949004
C           -1.27229435902996        0.21781799723495       -0.16027188381526
C           -3.80460630335691       -0.19150038914560        0.29434564968857
C           -3.66067741749529       -1.70190538483723        0.23686288816077
C           -4.20610234337041       -2.43413521072328       -0.80983213445246
C           -4.00062916936184       -3.80067015862592       -0.89420224498094
C           -3.23804921891195       -4.45226814478535        0.05959259574821
C           -2.68286290181728       -3.72775560863694        1.10110117355148
C           -2.89116354342659       -2.36316192400665        1.18822281489866
C           -3.97034385111409        0.32744749839005        1.70845083208950
C           -4.76991545585203       -0.36164147281654        2.61396588711435
C           -4.97934230247451        0.13439777761070        3.88799963047895
C           -4.39489781337461        1.32879131939752        4.27506126630901
C           -3.60465361415206        2.02477552185052        3.37680451676765
C           -3.39748898750859        1.53040827110699        2.10045950870235
C           -4.95315413408452        0.34130550154368       -0.54239265174599
C           -6.30836042388398        0.17514193095849       -0.35166409262839
C           -7.18673122275065        0.77313870281848       -1.24601222590601
C           -6.71427073589863        1.52657959314484       -2.31020382113028
C           -5.35361214329263        1.70157475910642       -2.50519101714453
C           -4.47321626375155        1.10649924173019       -1.61591394791783
C            1.65636444605919       -0.71413794129415       -0.78686483005701
C            0.86654584403125       -1.84550596156805       -1.12431794921342
C            1.39233413498483       -3.10088973214569       -1.12825218426392
C            2.74719416656097       -3.30458786221696       -0.79852537231276
C            3.54758541364881       -2.24409846514392       -0.50297916974375
C            3.04404321011290       -0.91592208334394       -0.50608147350641
C            5.82743462107117        0.17776936726380        1.31532040848325
C            7.17080146991570       -0.01501394558379        1.56468163456507
H            8.16491013652883       -0.91169039809399       -1.55604179522822
H            5.75668863302862       -0.56768128168795       -1.98291644735901
H            5.20066639860084        2.47998510849915        0.20662323745234
H            4.23485897301073        4.72641466962439        0.31323526238227
H            1.80618000147199        5.05436225612420        0.00877606429799
H            0.35238403636112        3.14255414466326       -0.47254100400928
H            0.01021226167946        1.92158380752022       -2.79132131514953
H           -2.38693758818786        2.23758966748562       -3.28527391907443
H           -0.94933913464378       -0.33599444949065        0.70885395639429
H           -4.79687366358683       -1.93527077839888       -1.56443911850737
H           -4.43678292506224       -4.35652518021965       -1.71193401972817
H           -3.07625551077101       -5.51829896415346       -0.00851528633590
H           -2.08213532337560       -4.22603772903945        1.84850528253568
H           -2.45836257397758       -1.80774124793289        2.00780339360722
H           -5.22310088085368       -1.29851909813567        2.32280116798887
H           -5.60146372445487       -0.41404811837356        4.58088787896976
H           -4.55669379432767        1.71545170279893        5.27074909965595
H           -3.14727103536516        2.95927752418405        3.66892214786076
H           -2.78393682589869        2.08480346774121        1.40514596227411
H           -6.68470402385187       -0.41061617331557        0.47373234082867
H           -8.25142087147523        0.64919573316712       -1.11021187794446
H           -7.41606668605471        1.98310753378179       -2.99342753343890
H           -4.98804035705732        2.29090181582082       -3.33314233510469
H           -0.17107452695213       -1.69533614960274       -1.38152640413020
H            0.77305611977182       -3.94883152262301       -1.38237138724596
H            3.14608823703290       -4.30861824485286       -0.78921914228252
H            4.58691611522099       -2.40315317395680       -0.25594401498351
H            5.16836725724912        0.47984679734589        2.11601452723615
H            7.57443443556090        0.13581290293461        2.55537444168015
