  66
       -107.57602277
 C          0.6040424096        0.0322809216       -0.0312258253
 C         -0.6041122912        0.0309856704       -0.0482800008
 C         -2.0132311670        0.0287884665       -0.0464236697
 C         -2.7139470052        0.0437178198        1.1628089650
 C         -4.0922423708        0.0371304070        1.1670188686
 C         -4.7976374626        0.0096186038       -0.0341356493
 N         -6.2088835392       -0.0072192524       -0.0240290826
 C         -6.9384186269        1.0608237019       -0.5497404473
 C         -6.3265520051        2.1850774030       -1.0893690605
 C         -7.0826868911        3.2286197802       -1.6019629851
 C         -8.4609486133        3.1713927823       -1.5745386228
 C         -9.0874502847        2.0683211253       -1.0125829414
 C         -8.3388009963        1.0265009104       -0.4987809398
 O         -9.0308109125       -0.0150388049        0.0685636992
 C         -8.2982981070       -1.0571219849        0.5810510145
 C         -9.0051708840       -2.1071681224        1.1359282343
 C         -8.3359761951       -3.2102845083        1.6463055103
 C         -6.9587368577       -3.2602992784        1.5801502015
 C         -6.2446504496       -2.2079666493        1.0270521616
 C         -6.8977652632       -1.0828067445        0.5400312685
 C         -4.1032264037       -0.0053549233       -1.2414642863
 C         -2.7242806774        0.0075872912       -1.2490924604
 C          2.0131155275        0.0264852857       -0.0217535775
 C          2.7279950380        0.0414695859       -1.2225696988
 C          4.1064727924        0.0368857550       -1.2104466001
 C          4.7973891941        0.0114240405       -0.0009541347
 N          6.2087531964        0.0020258840        0.0083759430
 C          6.9230373364        1.0703100960        0.5542737778
 C          6.2953310796        2.1962517948        1.0716849575
 C          7.0358571656        3.2398922798        1.6064770855
 C          8.4141762367        3.1802175751        1.6240273514
 C          9.0572388414        2.0758546010        1.0837176915
 C          8.3241989883        1.0344926454        0.5467887434
 O          9.0319704155       -0.0078842918        0.0010889388
 C          8.3143299765       -1.0489020189       -0.5342490931
 C          9.0368724856       -2.0987573367       -1.0689567545
 C          8.3828629022       -3.2006950473       -1.6007110009
 C          7.0042908441       -3.2500729884       -1.5753734845
 C          6.2742558775       -2.1984585708       -1.0421308213
 C          6.9131006439       -1.0740687480       -0.5348101406
 C          4.0886139145       -0.0063388581        1.1979407792
 C          2.7098747699        0.0042780653        1.1893340584
 H         -2.1660247641        0.0670736289        2.0931851217
 H         -4.6365169154        0.0539900843        2.0999370467
 H         -5.2498959538        2.2514734507       -1.1021208917
 H         -6.5799281358        4.0877370759       -2.0188993410
 H         -9.0538359697        3.9782642891       -1.9751209083
 H        -10.1621708529        1.9999037939       -0.9578532659
 H        -10.0814260454       -2.0448185030        1.1549852229
 H         -8.8967320901       -4.0230142407        2.0800667025
 H         -6.4245073192       -4.1196145152        1.9553187307
 H         -5.1690137690       -2.2668342793        0.9682797709
 H         -4.6545485097       -0.0326568335       -2.1699679863
 H         -2.1845848188       -0.0077494669       -2.1844332067
 H          2.1910017901        0.0637082687       -2.1593026400
 H          4.6615447136        0.0551785937       -2.1369769937
 H          5.2188630574        2.2636641537        1.0499892939
 H          6.5210370028        4.1003641580        2.0053667454
 H          8.9951337354        3.9863697794        2.0432555010
 H         10.1330669348        2.0059430819        1.0641738727
 H         10.1131684198       -2.0363787679       -1.0550389690
 H          8.9551638521       -4.0132689984       -2.0193463694
 H          6.4809135646       -4.1087782042       -1.9670246488
 H          5.1974362215       -2.2570070064       -1.0142846910
 H          4.6290531594       -0.0329262570        2.1328414688
 H          2.1590368086       -0.0125530261        2.1181207482
