  114
       -175.00182008
 C         -1.5159571990       -0.3308134330       -9.1425209441
 C         -0.4299809653        0.2577775226       -9.8149534650
 N          0.5429591383        0.8253454870       -9.1140394807
 C          0.5818879121        0.7943868348       -7.8237694785
 C         -0.4058350692        0.1311833261       -7.0161230354
 C         -0.3492496693        0.1426395003       -5.6102480955
 C         -1.4894203360       -0.1711278159       -4.7998671972
 C         -1.4065969072       -0.2337941875       -3.4431939553
 C         -0.2046295443        0.0314860527       -2.7490483444
 Si        -0.0903523233        0.0167376513       -0.8869529615
 C          1.5589797859       -0.7516366956       -0.3450267646
 C          2.2854680257       -0.2402466307        0.7249869835
 C          3.4812036929       -0.8071014326        1.1199764537
 C          3.9780567836       -1.9185996674        0.4454459635
 N          5.1870019850       -2.5042171198        0.8459908549
 C          5.5148011973       -2.8742243519        2.1342612255
 C          4.7520570802       -2.8139353882        3.2923820870
 C          5.3190512052       -3.2811128033        4.4627780441
 C          6.6092732282       -3.8055705290        4.4873814356
 C          7.3638275952       -3.8913435575        3.3333041451
 C          6.8160583115       -3.4283167567        2.1452074990
 C          7.2903482360       -3.3805677868        0.7896152859
 C          8.4794487461       -3.7553245189        0.1800636920
 C          8.6211383767       -3.5456357107       -1.1780498664
 C          7.6018627455       -2.9565322937       -1.9226245829
 C          6.4092378549       -2.5746863259       -1.3383965684
 C          6.2514475382       -2.8056450088        0.0211534050
 C          3.2653945474       -2.4415989797       -0.6300820658
 C          2.0761387582       -1.8558498674       -1.0161690085
 C         -1.5103366774       -0.9880332761       -0.1379340731
 C         -1.3258695377       -2.2893856057        0.3164307154
 C         -2.3721913857       -3.0251943094        0.8370059013
 C         -3.6423415366       -2.4617039052        0.9207480933
 N         -4.7099505657       -3.1983940488        1.4529719205
 C         -5.9445991396       -3.3700230038        0.8617214902
 C         -6.4031894892       -2.9259660442       -0.3708007986
 C         -7.6917663967       -3.2630886786       -0.7384685873
 C         -8.5074485245       -4.0304964379        0.0899642028
 C         -8.0481385569       -4.4957724086        1.3069460373
 C         -6.7571755500       -4.1699990467        1.6985544519
 C         -5.9636554036       -4.4876054554        2.8535211126
 C         -6.2086051070       -5.2128997350        4.0110956515
 C         -5.2066194819       -5.3067701722        4.9575085974
 C         -3.9791759593       -4.6763794310        4.7668962702
 C         -3.7117130005       -3.9483849322        3.6232386338
 C         -4.7060671130       -3.8703366198        2.6579485186
 C         -3.8438051781       -1.1585703219        0.4740132893
 C         -2.7875382554       -0.4410851558       -0.0505797643
 C         -0.1643134936        1.7600603986       -0.1332350222
 C          0.2613393639        2.8699174472       -0.8569452040
 C          0.2350976945        4.1383109972       -0.3121401100
 C         -0.2374719372        4.3265898171        0.9838827805
 N         -0.2620100337        5.6086894800        1.5507590251
 C          0.2594148357        5.9530934736        2.7806741477
 C          0.9467653106        5.1714768369        3.6989819737
 C          1.3902909162        5.7785854927        4.8582836108
 C          1.1672209459        7.1318728744        5.1015635420
 C          0.5050641740        7.9203416272        4.1803727173
 C          0.0498460780        7.3332624782        3.0081663340
 C         -0.6382940728        7.8363242860        1.8513904941
 C         -1.1231895047        9.0873826139        1.4968665682
 C         -1.7730158189        9.2259523609        0.2855732842
 C         -1.9539756481        8.1339785656       -0.5602590300
 C         -1.4806109992        6.8785854732       -0.2294845933
 C         -0.8064310642        6.7382456437        0.9756933647
 C         -0.6840728714        3.2299751155        1.7160369505
 C         -0.6412592151        1.9676580088        1.1586577536
 C          0.9281212235        0.3397541927       -3.5408216665
 C          0.8626188447        0.4138659647       -4.8974192567
 C         -1.4898889828       -0.4180862989       -7.7817132077
 H         -2.3170422557       -0.7699063157       -9.7177478136
 H         -0.3325155653        0.2506118659      -10.8877855847
 H          1.3536164270        1.3896006106       -7.3577025665
 H         -2.4356372608       -0.3667673774       -5.2809587001
 H         -2.2864998563       -0.4889316992       -2.8678518061
 H          1.9113731836        0.6258929728        1.2517857330
 H          4.0459792002       -0.3850796112        1.9384984834
 H          3.7448593102       -2.4256260888        3.2795981892
 H          4.7474150606       -3.2418999604        5.3782778789
 H          7.0180028710       -4.1576816382        5.4227549857
 H          8.3574544279       -4.3130179299        3.3498337420
 H          9.2757729737       -4.1970135958        0.7597672591
 H          9.5373047148       -3.8326167660       -1.6722272572
 H          7.7481230365       -2.7909042575       -2.9796856110
 H          5.6320840354       -2.1027510762       -1.9200935350
 H          3.6417269875       -3.3134208364       -1.1450578580
 H          1.5317278396       -2.2634309192       -1.8559445547
 H         -0.3436649160       -2.7355372500        0.2563876054
 H         -2.2185444505       -4.0427947354        1.1653731680
 H         -5.7717651241       -2.3461252497       -1.0267755963
 H         -8.0735946876       -2.9272717140       -1.6912013194
 H         -9.5096380703       -4.2706372522       -0.2321741279
 H         -8.6752283220       -5.1038773331        1.9412103953
 H         -7.1650904444       -5.6885932270        4.1665354074
 H         -5.3760953365       -5.8685381082        5.8639249338
 H         -3.2206862591       -4.7551993612        5.5317047284
 H         -2.7637950188       -3.4489520091        3.4915026894
 H         -4.8239745652       -0.7122080650        0.5587200734
 H         -2.9511571562        0.5728160054       -0.3867510549
 H          0.6266424772        2.7321720883       -1.8640634108
 H          0.5957434755        4.9864080025       -0.8755832464
 H          1.1393766529        4.1261699925        3.5105177360
 H          1.9250632185        5.1915218406        5.5902482188
 H          1.5272643022        7.5688257154        6.0209690570
 H          0.3468445153        8.9724964494        4.3625307149
 H         -0.9968654061        9.9308208724        2.1587038718
 H         -2.1559311470       10.1913556743       -0.0099010411
 H         -2.4791528874        8.2705998889       -1.4939359616
 H         -1.6402747281        6.0343419544       -0.8829577796
 H         -1.0748737585        3.3784335668        2.7123081443
 H         -0.9909423016        1.1227621429        1.7352299464
 H          1.8673212767        0.5329519903       -3.0396527419
 H          1.7539382975        0.6610576080       -5.4547972760
 H         -2.2704362372       -0.9597222456       -7.2702289259
