76
 energy: -127.446378811920 gnorm: 0.000049482265 xtb: 6.7.1 (edcfbbe)
C            7.20411918518895       -4.23270506907965        1.47651559362621
C            6.00971394405258       -3.63583104739193        1.82621709897160
C            5.62942333913431       -2.43451794474151        1.24686967788765
C            6.43252444139139       -1.81573155766253        0.29629625991775
C            7.65719441083285       -2.41478881139119       -0.02809106115221
C            8.03252741093935       -3.61223156668966        0.55223216240265
O            8.54514381755246       -1.84679670161659       -0.91235149038834
C            8.18532040618221       -0.65081394339698       -1.48959931887037
C            9.08122812749332       -0.09555061634188       -2.38438906767640
C            8.77860371720868        1.09371684891109       -3.03201768202085
C            7.56789530979847        1.71013486087326       -2.78835126501182
C            6.66690620098891        1.15756657604245       -1.89041785345053
C            6.96642190711479       -0.01728692036768       -1.21114203994794
N            6.08033956559222       -0.60397236938594       -0.30384204043032
C            4.84559506540057        0.01057862240110       -0.00094037493351
C            3.64553543271834       -0.63805153166186       -0.33077452565178
C            2.44167707538720       -0.04882332192681       -0.03833621600369
C            2.39126827083971        1.20474476650307        0.58596857297279
C            3.59489085072043        1.86653650932388        0.91493602869323
C            3.55133144643666        3.14593972442400        1.55187153726541
C            2.37824496020444        3.74844557228723        1.85031507439814
C            1.13935959079459        3.11583362404909        1.53494833968297
N           -0.00137932058310        3.72956346383065        1.84229986960215
C           -1.14170532464683        3.11319197728674        1.53879505527561
C           -2.38096424323346        3.74265108112401        1.85898287241540
C           -3.55365199071089        3.13767727374218        1.56402745884291
C           -3.59641161729896        1.85921825312828        0.92513626287449
C           -4.81537653165840        1.23737109064842        0.62724867262714
C           -4.84613913356350        0.00345348464240        0.00738435953793
N           -6.08058329209688       -0.61143414205948       -0.29558461391200
C           -6.97040298095334       -0.02013451229933       -1.19632703299033
C           -6.67444657759335        1.15907011185514       -1.86962830415284
C           -7.57964950794772        1.71688887726860       -2.76002561545819
C           -8.79111666747022        1.10140238665458       -3.00229438791229
C           -9.08990606088599       -0.09250960457748       -2.36149783272794
C           -8.18968425609380       -0.65308720435617       -1.47436819321248
O           -8.54569847057041       -1.85368355554764       -0.90443966135760
C           -7.65409366065920       -2.42626185784572       -0.02685588476496
C           -8.02574783278097       -3.62831517133647        0.54627301440657
C           -7.19383063993990       -4.25353081937149        1.46416679272064
C           -5.99974669218632       -3.65668681888296        1.81504457907812
C           -5.62303092002927       -2.45089218115755        1.24270710935165
C           -6.42945740833519       -1.82739851985798        0.29803001739529
C           -3.64569702125791       -0.64199943270372       -0.32735403831662
C           -2.44217417685671       -0.05147779751103       -0.03613098391790
C           -2.39240051585237        1.20058338529267        0.59126406279184
C           -1.14173763128877        1.83528418153001        0.90343315220814
N           -0.00056921856611        1.22323682781446        0.59817729721252
C            1.14019683382453        1.83752352302431        0.90044486799804
C            4.81426406034053        1.24638095663126        0.61503278539810
H            7.50416168049321       -5.16851396344613        1.92103419800100
H            5.36219865497399       -4.09598082517067        2.55681544109972
H            4.70128336788986       -1.97138454217919        1.54233957909606
H            8.98138882265964       -4.04105383232490        0.27011676247624
H           10.00980668803751       -0.61411629409685       -2.56521572757648
H            9.48508406869130        1.52042199404379       -3.72643382885054
H            7.30902603935165        2.62588216088677       -3.29750805565843
H            5.71787592394806        1.64185202950974       -1.72276606744904
H            3.68414203391396       -1.59952622399220       -0.82077768265439
H            1.51070982683791       -0.53185677526739       -0.28873119987196
H            4.49022000311697        3.62400569179582        1.79086699439209
H            2.33396780987113        4.71391534795439        2.33056065340410
H           -2.33725470484343        4.70780985284201        2.33990287534085
H           -4.49284130666747        3.61325807548224        1.80678323949264
H           -5.74045861491111        1.73041751521091        0.88886969596619
H           -5.72493771388138        1.64283859767842       -1.70322666172771
H           -7.32346606209911        2.63604223167059       -3.26438299355387
H           -9.50102459889832        1.53234322047708       -3.69057117345341
H          -10.01878981958231       -0.61069739033014       -2.54181473986358
H           -8.97461024485149       -4.05685437695182        0.26374627574308
H           -7.49098208433966       -5.19292450187333        1.90302318348137
H           -5.34973473025437       -4.12039662345471        2.54116237889237
H           -4.69509459888934       -1.98793495734920        1.53909361289160
H           -3.68371821324437       -1.60187382150490       -0.82052563670700
H           -1.51100330748092       -0.53205202643652       -0.29047803590879
H            5.73914285227443        1.74191441119350        0.87263913602781
