76
 energy: -127.400046372375 gnorm: 0.000053275910 xtb: 6.7.1 (edcfbbe)
C            7.21606009251574       -4.16316042304235        1.53071477097398
C            6.03155785121622       -3.54713903346036        1.89221853480878
C            5.64230690172823       -2.36395197471997        1.28712646478051
C            6.43020117574430       -1.77937737106487        0.29962026255473
C            7.64083818550791       -2.40188905818465       -0.04494894394116
C            8.02380366435023       -3.58404369059530        0.56406998799638
O            8.49450998188213       -1.87243702691827       -0.97904328392900
C            8.12657078542667       -0.69713586943673       -1.58345461513562
C            8.99461297484114       -0.17381712013234       -2.52566809058594
C            8.67656307411433        1.00080421284742       -3.18970785162746
C            7.48201158226874        1.64116342675757       -2.91341199850501
C            6.60921952160842        1.12371351725809       -1.97109960083224
C            6.92040741129576       -0.04423653968918       -1.28080989250902
N            6.06920763906074       -0.59365917541009       -0.32925232604253
C            4.83903717278374        0.03779284768250       -0.00559910019807
C            3.62836270336660       -0.57780474945140       -0.38477632992468
C            2.43753609400963        0.01533937085113       -0.07140372120701
C            2.39626841125333        1.24022408563814        0.62051324588221
C            3.61679251019342        1.86778707752568        0.99563505791446
C            3.57978099320909        3.09653999860814        1.68725418317555
C            2.38920271496691        3.68902601115751        2.00804149479009
C            1.15884106814282        3.09531453726549        1.66238901082082
N           -0.00119190063645        3.67211379736250        1.98736907339118
C           -1.16095172025788        3.09328592062860        1.66502404377978
C           -2.39154536208292        3.68442794520733        2.01421529414577
C           -3.58181562460848        3.09022439317837        1.69547042011714
C           -3.61827383940288        1.86247364780425        1.00203863953285
C           -4.83131208708400        1.22590175430634        0.67698316259916
C           -4.83967148162079        0.03245394580702       -0.00025404879914
N           -6.06959295290505       -0.60014827002755       -0.32246302795493
C           -6.92477591868194       -0.04872705131713       -1.26930826452390
C           -6.61650794489458        1.12075164921478       -1.95833054237734
C           -7.49319256282981        1.64018935508616       -2.89592295515133
C           -8.68880333221527        1.00031726479757       -3.16875644432471
C           -9.00398158096284       -0.17584060040817       -2.50607433913163
C           -8.13203286819207       -0.70115121857780       -1.56857983855641
O           -8.49727473673171       -1.87792428277706       -0.96541276327517
C           -7.63900306016282       -2.41015559527401       -0.03713532497646
C           -8.01864630958914       -3.59455017357150        0.56961894600413
C           -7.20615962794785       -4.17667868444484        1.53045202354345
C           -6.02022919731279       -3.56139598785373        1.88852450060643
C           -5.63442625900923       -2.37584301985364        1.28587028286635
C           -6.42709078316009       -1.78822610791004        0.30400349810028
C           -3.62878560454137       -0.58037570877537       -0.38326609047009
C           -2.43826631129440        0.01386961395207       -0.07080691005259
C           -2.39751907050955        1.23742206501977        0.62349847953879
C           -1.15892009261276        1.85085677333566        0.95589873506053
N           -0.00065325151157        1.28230065603295        0.62041254536197
C            1.15736751989479        1.85240561423598        0.95410245521548
C            4.83019723733003        1.23257828607265        0.66923575206624
H            7.52003289054898       -5.08567295999747        1.99933021997322
H            5.40117798612272       -3.98268138550936        2.65194821650384
H            4.72253016681976       -1.88442569909571        1.58214379575347
H            8.95918100491371       -4.03247599158179        0.26864228543126
H            9.91191647058857       -0.70436316975166       -2.72652592992432
H            9.35861616267201        1.40359368243097       -3.92153362600506
H            7.21891943641611        2.54972437503959       -3.43263618209828
H            5.67582525599292        1.62424086194500       -1.76801730723087
H            3.65978292716102       -1.51361983838076       -0.92227214380937
H            1.49941992265095       -0.43817880387162       -0.35181722881736
H            4.51154862429756        3.56677199163710        1.96518062263100
H            2.35609506560824        4.62857913589245        2.53878368211313
H           -2.35885410249105        4.62340149629978        2.54600606558853
H           -4.51376581034028        3.55838448008132        1.97626901988253
H           -5.76276326594916        1.68950536787644        0.96944449709988
H           -5.68230395752110        1.62089392904620       -1.75801532817612
H           -7.23226317853944        2.54986143388586       -3.41429689654016
H           -9.37388737268369        1.40464376966945       -3.89689400373561
H           -9.92202287706605       -0.70606566075837       -2.70439863901492
H           -8.95523901437762       -4.04232030707012        0.27705159660530
H           -7.50751588856408       -5.10097860249732        1.99722194501118
H           -5.38599754655964       -3.99931403523878        2.64367263562037
H           -4.71360591231504       -1.89685667118231        1.57847795588894
H           -3.65976818749703       -1.51492818344389       -0.92297796104729
H           -1.50000161612791       -0.43754572180888       -0.35410203087436
H            5.76150083518171        1.69823073017219        0.95888758931138
