  76
       -127.39479540
 C          7.1721513451       -4.2546316021        1.4502343788
 C          5.9939167055       -3.6422653004        1.8253444835
 C          5.6229281942       -2.4306112308        1.2618726897
 C          6.4207993683       -1.8179849755        0.3038387863
 C          7.6316063319       -2.4311987561       -0.0449584197
 C          7.9957615314       -3.6396892680        0.5183892718
 O          8.5121672533       -1.8683445122       -0.9350966653
 C          8.1624034827       -0.6658205027       -1.4976130883
 C          9.0522686145       -0.1159147835       -2.4012153181
 C          8.7562210601        1.0812761349       -3.0363866200
 C          7.5578136904        1.7121695611       -2.7722081859
 C          6.6626893848        1.1663004948       -1.8645368836
 C          6.9568476594       -0.0165689759       -1.1982117964
 N          6.0777650494       -0.5970103837       -0.2809175518
 C          4.8445216429        0.0169524809        0.0228152841
 C          3.6450858956       -0.6319927838       -0.3076372351
 C          2.4416427797       -0.0410782394       -0.0197958479
 C          2.3920729072        1.2138225185        0.6009364506
 C          3.5945392831        1.8750506997        0.9330585432
 C          3.5489831518        3.1556986723        1.5669510407
 C          2.3753937848        3.7601418663        1.8576626243
 C          1.1375425004        3.1282621035        1.5376237499
 N         -0.0029992205        3.7440323598        1.8357099264
 C         -1.1408595921        3.1281364567        1.5281536908
 C         -2.3813607572        3.7603579184        1.8369570213
 C         -3.5524471300        3.1548528194        1.5385971753
 C         -3.5926826969        1.8724848031        0.9079211905
 C         -4.8092421359        1.2475432741        0.6091120646
 C         -4.8360920014        0.0091852855       -0.0014402132
 N         -6.0659986039       -0.6113560322       -0.3031229248
 C         -6.9645074118       -0.0230221745       -1.1965444425
 C         -6.6846262859        1.1650202978       -1.8597957227
 C         -7.5996036276        1.7191732224       -2.7423683732
 C         -8.8040286546        1.0912427777       -2.9850638370
 C         -9.0855718074       -0.1121167953       -2.3550651181
 C         -8.1758258644       -0.6702968808       -1.4766566954
 O         -8.5125813125       -1.8789181166       -0.9197679344
 C         -7.6207573951       -2.4417118953       -0.0409804898
 C         -7.9799125758       -3.6484599508        0.5294082904
 C         -7.1455263356       -4.2634211343        1.4514671358
 C         -5.9619456006       -3.6518879785        1.8106650828
 C         -5.5961844071       -2.4419132729        1.2402491870
 C         -6.4043993420       -1.8299032850        0.2904860906
 C         -3.6337850763       -0.6376526106       -0.3261113721
 C         -2.4325468130       -0.0443463160       -0.0338798772
 C         -2.3874971141        1.2118246132        0.5846178865
 C         -1.1385697307        1.8475597634        0.8987685894
 N          0.0022765650        1.2330846635        0.6016575115
 C          1.1404995802        1.8482746561        0.9073219471
 C          4.8135344423        1.2529978315        0.6374335126
 H          7.4635272965       -5.1988233453        1.8823320844
 H          5.3522633724       -4.0978655900        2.5636929898
 H          4.7072364875       -1.9545790771        1.5760715219
 H          8.9326161708       -4.0813165218        0.2185835128
 H          9.9710268646       -0.6445987290       -2.5987764462
 H          9.4579609678        1.5037741207       -3.7379062584
 H          7.3038747435        2.6343354665       -3.2719065209
 H          5.7221617684        1.6616516386       -1.6809319870
 H          3.6865520001       -1.5938503767       -0.7968005046
 H          1.5098772903       -0.5215206902       -0.2720824166
 H          4.4882609083        3.6324412703        1.8086727350
 H          2.3294093633        4.7267826604        2.3346789796
 H         -2.3393600919        4.7277430438        2.3127333715
 H         -4.4937838885        3.6312244091        1.7727415444
 H         -5.7367252467        1.7399943532        0.8643034711
 H         -5.7397738421        1.6582882851       -1.6938822498
 H         -7.3562695883        2.6453156843       -3.2398099448
 H         -9.5211369982        1.5199509095       -3.6669326672
 H        -10.0080817798       -0.6395823740       -2.5376963386
 H         -8.9212019757       -4.0888951105        0.2421614106
 H         -7.4329261321       -5.2063705608        1.8888152990
 H         -5.3114296111       -4.1068569148        2.5416324238
 H         -4.6760599328       -1.9672846923        1.5430895782
 H         -3.6710454683       -1.6010762379       -0.8126602209
 H         -1.4989457253       -0.5249228419       -0.2795504863
 H          5.7393314292        1.7467323137        0.8959233432
