76
 energy: -127.444646157046 gnorm: 0.000036583028 xtb: 6.7.1 (edcfbbe)
C            8.05175016312186       -3.57654181089111       -1.60953431149005
C            6.81053341962797       -3.61016053753479       -1.00756656864501
C            6.15137694618192       -2.43005541933677       -0.69422639892698
C            6.72808792115963       -1.19995508892440       -0.98183942746324
C            7.98800193148991       -1.17493706633916       -1.59543299464059
C            8.64015364660152       -2.35306529467590       -1.90380243640140
O            8.62799583660445        0.00279346733004       -1.91533920120649
C            7.98636165766823        1.17972647108508       -1.59576960710614
C            8.63698088631169        2.35865844094905       -1.90430733018969
C            8.04708334578824        3.58141073889669       -1.61002473276990
C            6.80598200017989        3.61349521991390       -1.00773627665919
C            6.14835898993290        2.43257794247111       -0.69422758487973
C            6.72644393311149        1.20318553989224       -0.98211853430157
N            6.09063172156849        0.00121466792384       -0.68320453866051
C            4.84465653029654        0.00042899544656        0.00042679564307
C            3.65125590590001        0.00273273986723       -0.73244214475152
C            2.44476045501998        0.00186461630627       -0.07596648796338
C            2.39408794643994       -0.00119069488488        1.32390469479487
C            3.59532022965682       -0.00335572863365        2.06655851088882
C            3.55145387627705       -0.00609586334204        3.49563174285776
C            2.37825302097312       -0.00665634287689        4.16722604428256
C            1.14053096855562       -0.00475310556216        3.45816659060197
N            0.00001716627359       -0.00539123391109        4.14404025487289
C           -1.14050252092387       -0.00390014389502        3.45817758563430
C           -2.37821831918454       -0.00448444488670        4.16725017050900
C           -3.55142518596304       -0.00347752053058        3.49566683586269
C           -3.59530397433766       -0.00187182750832        2.06659237506044
C           -4.81630923136267       -0.00127666874324        1.37847804446061
C           -4.84465982572327        0.00014855150574        0.00046995065610
N           -6.09064308774959        0.00057950184477       -0.68314736861275
C           -6.72766923723008        1.20229739134762       -0.98048336253918
C           -6.15067777530994        2.43189187873080       -0.69126223789694
C           -6.80943263703795        3.61255708037987       -1.00333891555976
C           -8.05055035586198        3.58001185900915       -1.60556797150722
C           -8.63931146573322        2.35705391514054       -1.90127139165451
C           -7.98756780705944        1.17837231947000       -1.59415644511671
O           -8.62802003634998        0.00121240927930       -1.91525469654171
C           -7.98682848752069       -1.17628988079611       -1.59691018059269
C           -8.63785331032424       -2.35466488496094       -1.90671712424663
C           -8.04829654790457       -3.57793631029934       -1.61391215807466
C           -6.80709180707000       -3.61109625827023       -1.01189617171664
C           -6.14907320456685       -2.43074324415105       -0.69710198640941
C           -6.72688364928925       -1.20084326028316       -0.98336131680417
C           -3.65126594598945        0.00113395286326       -0.73241269676911
C           -2.44476423083061        0.00061559350382       -0.07594785540644
C           -2.39407835467713       -0.00095665504326        1.32392543633539
C           -1.14090504498630       -0.00185362380303        2.03108843279129
N            0.00000509276058       -0.00087256512404        1.34777136153740
C            1.14092099087541       -0.00219485983597        2.03107833607685
C            4.81631907280867       -0.00260576356398        1.37843293524270
H            8.56980069819299       -4.49045481282760       -1.85456834958300
H            6.34195560379341       -4.55417636400393       -0.77465715278843
H            5.18114791986797       -2.46191561188958       -0.22266427362885
H            9.60938783463349       -2.29479225072993       -2.37410790172468
H            9.60626153966767        2.30157803563729       -2.37466715546312
H            8.56391606811903        4.49596099561149       -1.85523883356879
H            6.33631857505321        4.55693127508334       -0.77466773068835
H            5.17829466486985        2.46326600519479       -0.22224555629940
H            3.69559914224872        0.00511615836312       -1.81117782869293
H            1.51430171261996        0.00345372865073       -0.62079869932492
H            4.49032443368125       -0.00759152402327        4.02978522358775
H            2.33202115074720       -0.00855515507665        5.24531739861752
H           -2.33197697220554       -0.00581019254139        5.24534199286635
H           -4.49029118802415       -0.00395582504236        4.02983016708952
H           -5.74217756110464       -0.00200272807477        1.93520539761840
H           -5.18054825506707        2.46293246556074       -0.21943485970758
H           -6.34061124950529        4.55616062213888       -0.76925082197559
H           -8.56826168558913        4.49436324397229       -1.84967349279010
H           -9.60853694879557        2.29961820977101       -2.37169921182054
H           -9.60715412701493       -2.29674293548899       -2.37693235556169
H           -8.56547600260416       -4.49204673719095       -1.86004645804776
H           -6.33765883693731       -4.55494572774192       -0.78003936516756
H           -5.17889015087677       -2.46226618195570       -0.22542251369987
H           -3.69561986082363        0.00224411937147       -1.81115011771506
H           -1.51431059404417        0.00126846351483       -0.62079073722859
H            5.74219247689856       -0.00437547083037        1.93514959309104
