76
 energy: -127.400125639194 gnorm: 0.000067226004 xtb: 6.7.1 (edcfbbe)
C            7.28312929078491       -4.07699419666529        1.69727540782315
C            6.10172163256836       -3.45169393707052        2.05301119776652
C            5.69126306343152       -2.30193578883934        1.39935682657224
C            6.45492394579986       -1.76093988562191        0.36893722806219
C            7.66277692360563       -2.39174052480860        0.02969808239420
C            8.06674747824947       -3.54043842982787        0.68713674445464
O            8.49277548803293       -1.90313932396390       -0.94711758306751
C            8.10685784760379       -0.75717444637218       -1.59520009266799
C            8.95464950697375       -0.27038722417988       -2.57466720042796
C            8.61807897557142        0.87337617026885       -3.28209958918500
C            7.42550920790996        1.51966243037748       -3.01105043079733
C            6.57275597124756        1.03861858334878       -2.03178344725244
C            6.90263595633313       -0.09775164624227       -1.29881370749876
N            6.07222668222621       -0.60981850961625       -0.30898886699552
C            4.84135856478797        0.02557845564484        0.00537986773897
C            3.63079057887888       -0.61089482165512       -0.33750981659543
C            2.43955626155658       -0.01171218691374       -0.03700573436225
C            2.39790804803233        1.23915831935340        0.60669943218787
C            3.61846156167169        1.88517446111764        0.94915175599544
C            3.58159659104682        3.13834519251684        1.59538011968563
C            2.39102576686751        3.73939868916297        1.89946726171357
C            1.16069547038926        3.13143198410574        1.57937891783843
N            0.00090205589924        3.72140834640196        1.88062334456831
C           -1.15902837700070        3.13300391431811        1.57687929670938
C           -2.38921893610817        3.74336276958952        1.89295299825354
C           -3.57995019425477        3.14359253646554        1.58697611420611
C           -3.61712193284300        1.88881151268153        0.94392368427768
C           -4.83108607981612        1.24890693941537        0.62913520733949
C           -4.84029534712181        0.02780017119843        0.00361132637404
N           -6.07167651584884       -0.60621274929031       -0.31229309622766
C           -6.89329765460195       -0.10046761453146       -1.31243864971995
C           -6.55264582070096        1.02627232777072       -2.05524830850551
C           -7.39691787325791        1.50154275198952       -3.04463758973111
C           -8.59149205824414        0.85897587206289       -3.31578639947781
C           -8.93874369331595       -0.27530009053488       -2.59824123078514
C           -8.09945833725817       -0.75637900600317       -1.60870728373807
O           -8.49545355321311       -1.89305369594700       -0.95035631819496
C           -7.67393273616716       -2.37533808432769        0.03678801371042
C           -8.08795709763687       -3.51440933291007        0.70458354864174
C           -7.31312529385938       -4.04381352206580        1.72526215838031
C           -6.13019531669110       -3.42120794568305        2.08071255665508
C           -5.70949207815065       -2.28119284607056        1.41655419874133
C           -6.46458261305514       -1.74743086517398        0.37613307230575
C           -3.63001774031553       -0.61214528095807       -0.33343451168554
C           -2.43861435982936       -0.01320235792913       -0.03295065010280
C           -2.39672857723090        1.24015022943550        0.60586823519070
C           -1.15753231456015        1.86218645117272        0.92003611104161
N            0.00059915479489        1.27793674995671        0.61190020833351
C            1.15888466734539        1.86141084514220        0.92100401150567
C            4.83226958521771        1.24438449986167        0.63550757416538
H            7.60343365352354       -4.97367153244999        2.20364101447598
H            5.49049489721005       -3.85382421034458        2.84605934631377
H            4.77387159067151       -1.81453809490537        1.68903108704464
H            8.99912320542800       -3.99673562012127        0.39436067244672
H            9.87117037063512       -0.80450450430838       -2.76952005433503
H            9.28442910419117        1.24762263924264       -4.04298109177335
H            7.14837822511966        2.40438345954269       -3.56309842064364
H            5.64078966756036        1.54326204374657       -1.83240499143603
H            3.66263316857096       -1.56707590500344       -0.83785011157387
H            1.50140375850626       -0.48029225800193       -0.29139018136003
H            4.51340552458612        3.62108208334408        1.85074636718259
H            2.35788682574266        4.69830907308210        2.39438354369526
H           -2.35584751194515        4.70311813196222        2.38621231245018
H           -4.51166561115326        3.62837099810088        1.83878188087567
H           -5.76246911827279        1.73261297267285        0.88731768986881
H           -5.61905863864894        1.52776730457783       -1.85533039065825
H           -7.11167381531338        2.37881813848543       -3.60437761751343
H           -9.25130472859230        1.22879068596669       -4.08449614988172
H           -9.85720397469049       -0.80620617661932       -2.79274631280745
H           -9.02111846409136       -3.96888388466431        0.41148834421381
H           -7.64147304668369       -4.93281538524814        2.23996944863169
H           -5.52582576488067       -3.81785172541711        2.88173598220161
H           -4.79088176269302       -1.79565530881048        1.70558203420136
H           -3.66217800458472       -1.57057160025719       -0.82943934335750
H           -1.50050284060362       -0.48412845076848       -0.28312642968257
H            5.76364145320317        1.72560693521027        0.89831762336425
