118
 energy: -187.451977156795 gnorm: 0.000053002817 xtb: 6.7.1 (edcfbbe)
C            6.49848467660893       -3.89968722135014        2.19550964049481
C            6.18484216419299       -3.66976046589282        0.86639699563270
C            6.68285335755516       -2.55531005550900        0.21624632424762
C            7.49742458482348       -1.66343873156130        0.90414495029049
N            7.95781131695550       -0.50168446460135        0.25542459342096
C            7.14056840570099        0.47923507369161       -0.26386009672680
C            5.68798364748737        0.43932605801731       -0.20701940839972
C            4.99742190828006       -0.01617434088251        0.91465372512248
C            3.61857235680537       -0.07206644630592        0.90659567832725
C            2.89507292604991        0.33206504736039       -0.21200687348973
C            1.42269410845004        0.22412909147083       -0.22413848739784
C            0.63179136862344        1.38165182425672       -0.24599902097021
C            1.20702575777008        2.67970366798241       -0.22751052354190
C            0.43036298770135        3.79600607503887       -0.27263416976349
C           -0.97248454190084        3.68347276599694       -0.34269834470275
C           -1.56450902123294        2.45833821816241       -0.33680707431316
C           -0.79313694337902        1.26813700138452       -0.26659301027166
C           -1.39231764732648        0.00045648833009       -0.23446890847146
C           -2.86438985009442       -0.11398687156428       -0.23291309788389
C           -3.60317054010219        0.31956134385089        0.86418600920841
C           -4.98060005899182        0.22923258683043        0.87038000737660
C           -5.65518505323205       -0.29022720722320       -0.23311973949607
C           -7.10338278277039       -0.40274715142249       -0.28867412791262
N           -7.72648223974332       -1.41066943484390       -0.84557335673663
C           -9.05296412596227       -1.16630595793842       -0.68759015417468
C          -10.14533804865825       -1.98525877966794       -1.09376920534962
C           -9.97490120233936       -3.20912897980971       -1.73035133045095
C          -11.07685185241629       -3.96965360486807       -2.08221988593429
C          -12.35216162873941       -3.51780744546549       -1.80729744593592
C          -12.55994886098582       -2.28867287912483       -1.17484775910382
C          -13.87129859292112       -1.80468348864856       -0.89837892007489
C          -14.06019940315325       -0.60140249626216       -0.31256782863581
C          -12.95846149199380        0.22494864402979        0.05706177843848
C          -13.16236020127038        1.48119579010301        0.63412360928111
C          -12.09110378703461        2.28440242763212        0.96190246581681
C          -10.79371030835941        1.84769893261572        0.75429431371196
C          -10.54192440095537        0.58855502162088        0.21257760336966
C          -11.63885145725403       -0.23555502763214       -0.17531019821338
C          -11.44401073231427       -1.49798777943063       -0.80450054539302
C           -9.24538436649343        0.04582092400831       -0.02261620404510
N           -7.98001550314388        0.52143759685119        0.23722663492932
C           -7.59849916952333        1.70876777315009        0.89114494071479
C           -7.91554798074550        1.90201484856010        2.23237162243645
C           -7.49958422629281        3.05363284500917        2.87450264905092
C           -6.76305834596942        4.00682401890000        2.18952786789249
C           -6.44526229621329        3.81050289190114        0.85599553217819
C           -6.86156046624273        2.66495711818482        0.20229752094200
C           -4.91451167478775       -0.75190878835501       -1.32157617901060
C           -3.53831376030550       -0.66283526674842       -1.32150462830391
C           -0.60135879400802       -1.15708746897638       -0.19909193716961
C           -1.17701177507180       -2.45337525307765       -0.13136665817987
C           -0.40046550723129       -3.57060927753761       -0.12134363717598
C            1.00288966120948       -3.46096511994878       -0.18269410828607
C            1.59514888472334       -2.23659545275543       -0.22267390104214
C            0.82363630200667       -1.04434444920812       -0.20962022008581
C            3.58537656625269        0.82913680905665       -1.31484373486139
C            4.96381392754007        0.88486852192495       -1.31232259615238
N            7.82385173046556        1.44949010172417       -0.81518462876870
C            9.13325875963938        1.12128808927297       -0.66013808405648
C           10.27475187556136        1.87191861178577       -1.06312902971551
C           10.18152754609115        3.10870623855317       -1.69075528351049
C           11.32902670442960        3.79966244431440       -2.04046265473316
C           12.57352806153219        3.26523606329643       -1.77247818476247
C           12.70380401135235        2.02091630960504       -1.14911950696544
C           13.98221372935127        1.45194826069993       -0.88013516867768
C           14.09538488830346        0.23469518630819       -0.30372652256097
C           12.94400064023728       -0.52222520529004        0.06322168208406
C           13.06828573075970       -1.79359112554289        0.62970668917070
C           11.94854549968400       -2.52916300602018        0.95434607460386
C           10.68133933524959       -2.00832454013577        0.75455346485861
C           10.50973983445692       -0.73113062541220        0.22389541687878
C           11.65605332383057        0.02385233963088       -0.16137542922832
C           11.54046753192116        1.30070213932489       -0.78087549619065
C            9.25007101282026       -0.10478870252541       -0.00332131263969
C            7.81083120545940       -1.89059098502645        2.24082222355583
C            7.31330280760915       -3.01156432375064        2.87918638471620
H            6.10768417577961       -4.77023204795671        2.70003370836587
H            5.55094860867068       -4.36099730991073        0.33177131557138
H            6.44339061175879       -2.36605131748541       -0.81971355734237
H            5.53418435171268       -0.31349924512582        1.80292496704249
H            3.08899785142286       -0.42860677279627        1.77844225092974
H            2.28186401258448        2.76693107058413       -0.17362500163314
H            0.88299359228170        4.77656846801471       -0.25874409759507
H           -1.57297014482681        4.57983032442805       -0.39703813053546
H           -2.64001126037148        2.37366576480423       -0.38801074536085
H           -3.08662907467077        0.72118744441255        1.72421557441794
H           -5.52643361631443        0.54531921261434        1.74640824608801
H           -8.97083423307974       -3.54627862425738       -1.93497515114801
H          -10.93798306629371       -4.92160379849940       -2.57406882173276
H          -13.21080541447512       -4.11327028338104       -2.08407447735916
H          -14.71268567672277       -2.42340020362845       -1.17727454529859
H          -15.05675262711428       -0.23299587929405       -0.11317663460292
H          -14.17294615190132        1.82174309086551        0.80826220137428
H          -12.25886075373329        3.26407866452036        1.38559959460928
H           -9.97379216862021        2.50126190625018        1.00660204975506
H           -8.48477090902046        1.14907163807851        2.75809776293078
H           -7.74680283337186        3.20376778818569        3.91473686278569
H           -6.43645158219853        4.90203151144780        2.69653559310656
H           -5.87224409914701        4.55248523359382        0.32071207784533
H           -6.61791710696299        2.50094669093451       -0.83696405687064
H           -5.44176113845809       -1.17546060484941       -2.16211568676471
H           -2.97185048044020       -1.00943855499829       -2.17385617030552
H           -2.25226825177937       -2.53888798229654       -0.08461107303586
H           -0.85372248078893       -4.54963323246033       -0.07026175387913
H            1.60369789983503       -4.35869842623375       -0.19362907172481
H            2.67116299790773       -2.15501864479828       -0.26714222359863
H            3.03063359569556        1.15649216037721       -2.18238091608597
H            5.50385136554977        1.26293192604468       -2.16644696214119
H            9.20060478520302        3.51080160127569       -1.89025518852741
H           11.25015144846509        4.76200404023779       -2.52531434378344
H           13.46781517006266        3.80641322471735       -2.04784497831681
H           14.86072924126844        2.01760589075310       -1.15721177096287
H           15.06686222006890       -0.19820604663256       -0.11024912018107
H           14.05536716547413       -2.19975330333083        0.79791148317649
H           12.05423035074960       -3.52114822760337        1.36935810265602
H            9.82159886838456       -2.60987798809604        1.00384394108597
H            8.44052407579331       -1.18735756738784        2.76647946098893
H            7.55776718330289       -3.18790736125881        3.91595950675220
