118
 energy: -187.390030392636 gnorm: 0.000056095129 xtb: 6.7.1 (edcfbbe)
C            6.76353481419164       -4.37629922453494        1.88354580449233
C            6.48597228250192       -4.06398575343839        0.56312791140826
C            6.90473262128662       -2.85849403025557        0.02974991644640
C            7.60349984307824       -1.95959834853581        0.82699228305025
N            7.99560678239167       -0.71534899666177        0.29512458132606
C            7.13564280108799        0.27199732405775       -0.14137406989683
C            5.69066608100781        0.20081759103376       -0.09999994255612
C            4.97891012051340       -0.50208314301231        0.87567128467020
C            3.60360612287320       -0.54393195446683        0.84211106427473
C            2.87756731521781        0.13403317201572       -0.14475323862527
C            1.42344425753598        0.07240277702875       -0.16998388981047
C            0.65345106726798        1.27803458774945       -0.16562937589148
C            1.25594300676229        2.53567901916907       -0.07131028375324
C            0.50835958323199        3.70706608128236       -0.14569295802545
C           -0.85749727026345        3.63882090090553       -0.32001103516986
C           -1.48964586095760        2.39944032003981       -0.35268111315769
C           -0.76969869742549        1.20885237873843       -0.22046164774703
C           -1.42393853379015       -0.06309694388346       -0.16892949176219
C           -2.87804165507066       -0.12447407395722       -0.14300131497485
C           -3.60521086694255        0.57984285686856        0.82436729162906
C           -4.98047217905884        0.53677160416148        0.85911902728484
C           -5.69115376886021       -0.19431527643560       -0.09642829831498
C           -7.13588129411182       -0.27094618467008       -0.13504677508650
N           -7.78149853459915       -1.32575720265772       -0.57554599520592
C           -9.10023251077648       -1.04176684953814       -0.45091603479163
C          -10.20766359280394       -1.88040162272790       -0.76642088887351
C          -10.05886381074977       -3.17116169725145       -1.26022092977028
C          -11.17425051628341       -3.94515899036703       -1.53210323970887
C          -12.44125521435198       -3.44074244172558       -1.31783820873755
C          -12.62731057144670       -2.14460306921556       -0.82762366138016
C          -13.92988796883218       -1.60840325325107       -0.61437458788558
C          -14.09735051790997       -0.34457142512503       -0.16509308043832
C          -12.98107986995247        0.49626919922276        0.11734684410082
C          -13.16318848800394        1.81159022908795        0.55367020224153
C          -12.07797785138118        2.62586421812883        0.79755609868208
C          -10.78852889488104        2.14605321974572        0.64321518036702
C          -10.55817918387159        0.83112021783490        0.24117277549598
C          -11.66993274864122       -0.01087477072111       -0.05746880082436
C          -11.49756591771614       -1.33893412424152       -0.54127785270370
C           -9.27182016385051        0.24377868033797        0.07075180671726
N           -7.99940464892698        0.72332396203495        0.27806904057497
C           -7.61229250621175        1.98189485470267        0.77903915277985
C           -7.88993951110831        2.32316790903074        2.09950579148266
C           -7.47610867281838        3.54749218646823        2.59080861282389
C           -6.78296284552417        4.42771592426882        1.77520774516136
C           -6.50626491485419        4.08502088676434        0.46216543734756
C           -6.91972063497454        2.86483918482613       -0.04109424017912
C           -4.97012714036896       -0.92051741809264       -1.05114377621083
C           -3.59576372330029       -0.89099245128349       -1.07114810399746
C           -0.65393866467975       -1.26815378366108       -0.13069112903689
C           -1.25645321760754       -2.52270548754867       -0.00166988665427
C           -0.50884744204031       -3.69570474469841       -0.04314841418396
C            0.85707181654538       -3.63231461710870       -0.21877704167839
C            1.48922463468249       -2.39430925302541       -0.28558915627633
C            0.76922868484368       -1.20050434446715       -0.18671480096792
C            3.59640573416234        0.87388326899112       -1.09341085332491
C            4.97085585251655        0.90190196340134       -1.07412696526855
N            7.78488292723841        1.31321680808298       -0.60792904163850
C            9.10266421764092        1.02712287698002       -0.47748436113106
C           10.21310785172685        1.85343730395361       -0.81419431894107
C           10.06896564267640        3.13252039245715       -1.33881222505629
C           11.18716020093199        3.89522720148571       -1.63035861965011
C           12.45236464489738        3.39098180063959       -1.40530925802622
C           12.63374472111972        2.10627340327646       -0.88422804719238
C           13.93439253871680        1.57004277841144       -0.65955636232660
C           14.09727673134796        0.31669341130522       -0.18023105435948
C           12.97794411915149       -0.51254361174127        0.12359912695957
C           13.15522120187207       -1.81774652393238        0.59117607137092
C           12.06699971405305       -2.62145886065082        0.85581878760776
C           10.77932908709857       -2.14017599652315        0.69151600854719
C           10.55386459980038       -0.83435010696264        0.25824202803290
C           11.66865867739349       -0.00436298836509       -0.06186796122560
C           11.50108075352927        1.31234111459994       -0.57735871281389
C            9.26969326857409       -0.24604180452189        0.07509078407098
C            7.88204809198092       -2.27033355116423        2.15478620583981
C            7.46290363486484       -3.48027268174090        2.67630299469031
H            6.43459113707491       -5.31777215124234        2.29651217541512
H            5.94254902894000       -4.76181019243680       -0.05581710095363
H            6.69127530287068       -2.60283495869783       -0.99751310073322
H            5.49791982960519       -0.99541455402597        1.68298503334605
H            3.06716921651691       -1.07528372740897        1.61509745745761
H            2.32350748212246        2.60467051699101        0.06909138462059
H            1.00703965855233        4.66245988052668       -0.07916866817274
H           -1.44481294442469        4.53984051058122       -0.41724827318895
H           -2.55989744501592        2.36099736079275       -0.48731707928205
H           -3.06967136872935        1.13326257301816        1.58234948301757
H           -5.50014242401887        1.05154892692467        1.65248503131388
H           -9.06083486833954       -3.54841698077090       -1.41912671530439
H          -11.05212949495279       -4.94862932849978       -1.91345935992014
H          -13.31051801748964       -4.04651952147811       -1.53190362577628
H          -14.78216847954877       -2.23785918299429       -0.82849957486385
H          -15.08720072507653        0.06222619148763       -0.01260163540165
H          -14.16771748169731        2.18718296577680        0.68543501306958
H          -12.22841850455607        3.64828104792993        1.11277924456096
H           -9.95766659515624        2.80811287059250        0.82769451689778
H           -8.42708081172491        1.62662341692646        2.72683213031504
H           -7.69148899974064        3.81226350157187        3.61511344469457
H           -6.45820674822424        5.38060252971558        2.16462913222523
H           -5.96769132215854        4.77050466942399       -0.17454749582205
H           -6.70687973600872        2.58550390938645       -1.06229850134803
H           -5.52146918178485       -1.49631800362926       -1.77795731403410
H           -3.05626572930107       -1.42898174246199       -1.83709801417985
H           -2.32406366272361       -2.58780954836196        0.14021302810011
H           -1.00756226809804       -4.64887647431283        0.04974216951217
H            1.44443614849154       -4.53567223633044       -0.29071855780226
H            2.55952702920068       -2.35964640089116       -0.42083111186041
H            3.05776084808594        1.39130209597246       -1.87399227502145
H            5.52306573559727        1.45658708276174       -1.81654468537280
H            9.07229035375743        3.50987263047025       -1.50578134585494
H           11.06865662351108        4.88971167256065       -2.03564579672820
H           13.32382036392822        3.98789972937401       -1.63479696608202
H           14.78896172145849        2.19068738802230       -0.88969189939934
H           15.08565275089461       -0.09037426057245       -0.01913437099415
H           14.15837185557967       -2.19420958315507        0.73074334433180
H           12.21366401765361       -3.63662832980822        1.19531906067692
H            9.94598455729827       -2.79418094102443        0.89280389135998
H            8.42398796373273       -1.56162998512399        2.76411983633659
H            7.67898450877760       -3.72133620323784        3.70630310633431
