  118
       -187.45178534
 C          6.4967720082       -3.9766742659        2.2887308775
 C          6.1906395912       -3.7619174791        0.9553593735
 C          6.6840281488       -2.6494907241        0.2980586670
 C          7.4865385329       -1.7449513026        0.9832477880
 N          7.9455668467       -0.5866948755        0.3271066453
 C          7.1310038793        0.3950208981       -0.1947767420
 C          5.6783903031        0.3605166738       -0.1398423905
 C          4.9819857701       -0.1084865263        0.9727002738
 C          3.6028992732       -0.1602833918        0.9585437719
 C          2.8847432187        0.2635809423       -0.1559444232
 C          1.4114296717        0.1629663391       -0.1725543149
 C          0.6265829396        1.3243056726       -0.1505401423
 C          1.2096078191        2.6175820951       -0.0893425976
 C          0.4392455684        3.7390060385       -0.0889562892
 C         -0.9646692444        3.6364931217       -0.1548348989
 C         -1.5636790413        2.4153173691       -0.1916102530
 C         -0.7989622675        1.2188614498       -0.1687148583
 C         -1.4045657155       -0.0464687360       -0.1804908511
 C         -2.8772029841       -0.1510848343       -0.1734381954
 C         -3.6054250201        0.2627724643        0.9385859821
 C         -4.9838113591        0.1932150265        0.9472048359
 C         -5.6691894374       -0.2877041289       -0.1669875086
 C         -7.1207686225       -0.3604892124       -0.2186546956
 N         -7.7799906113       -1.3575406192       -0.7511865045
 C         -9.0970171307       -1.0618122642       -0.5961441865
 C        -10.2189417293       -1.8499157985       -0.9820693536
 C        -10.0939575032       -3.0947667613       -1.5877965359
 C        -11.2233494482       -3.8225946273       -1.9214084990
 C        -12.4810714220       -3.3169611996       -1.6593953470
 C        -12.6432278123       -2.0656481781       -1.0578278079
 C        -13.9357125488       -1.5260637927       -0.7959124743
 C        -14.0798179127       -0.3024048075       -0.2403139821
 C        -12.9482022246        0.4908973503        0.1108906054
 C        -13.1052055879        1.7680326542        0.6558985274
 C        -12.0047903389        2.5391035958        0.9637476991
 C        -10.7245513834        2.0490126262        0.7690567740
 C        -10.5198098171        0.7674671722        0.2611361675
 C        -11.6465982565       -0.0244135428       -0.1077390171
 C        -11.4987132820       -1.3082112582       -0.7055774811
 C         -9.2441841971        0.1711636550        0.0413368967
 N         -7.9617362971        0.6064116774        0.2886359726
 C         -7.5290901083        1.7883140017        0.9194189595
 C         -7.8563736753        2.0332352487        2.2496837700
 C         -7.3865904078        3.1757989973        2.8706137528
 C         -6.5849701986        4.0677744081        2.1764253029
 C         -6.2569924923        3.8199260574        0.8539608415
 C         -6.7277562611        2.6839848622        0.2209205169
 C         -4.9402864553       -0.7356501470       -1.2682471128
 C         -3.5626575008       -0.6648072577       -1.2717882850
 C         -0.6192586391       -1.2083822919       -0.1924514733
 C         -1.2002055258       -2.5039922661       -0.1719566284
 C         -0.4283866083       -3.6240662146       -0.2063803374
 C          0.9754684169       -3.5184233644       -0.2655636953
 C          1.5729842944       -2.2959967716       -0.2601614765
 C          0.8062579586       -1.1019788599       -0.2029370920
 C          3.5804478315        0.7750126449       -1.2487440293
 C          4.9590532409        0.8246630946       -1.2410592504
 N          7.8177249646        1.3597308762       -0.7525101006
 C          9.1259131341        1.0260562707       -0.6003935338
 C         10.2705879099        1.7682252854       -1.0104952483
 C         10.1829364360        3.0046898475       -1.6394228132
 C         11.3334749398        3.6875050570       -1.9954466038
 C         12.5755837404        3.1444228759       -1.7340956188
 C         12.7003050298        1.8995829116       -1.1105339658
 C         13.9760931490        1.3209715676       -0.8499105416
 C         14.0841045165        0.1040366358       -0.2718081435
 C         12.9295642028       -0.6422450321        0.1066419948
 C         13.0480073987       -1.9119828838        0.6780365752
 C         11.9250179683       -2.6366291062        1.0157086952
 C         10.6605219664       -2.1067446420        0.8226613995
 C         10.4951053731       -0.8314067601        0.2855822945
 C         11.6443636298       -0.0869041053       -0.1108682176
 C         11.5338935980        1.1887331630       -0.7337852700
 C          9.2386868990       -0.1977204382        0.0614413265
 C          7.7924109415       -1.9567348128        2.3242915316
 C          7.2992996961       -3.0754351491        2.9699126507
 H          6.1095765327       -4.8455651259        2.7987875812
 H          5.5666113833       -4.4636195633        0.4228284807
 H          6.4502189309       -2.4714580701       -0.7411346160
 H          5.5136331145       -0.4195106178        1.8592075297
 H          3.0690451596       -0.5290015609        1.8226844406
 H          2.2853895309        2.6962643334       -0.0397097929
 H          0.8974295410        4.7159905157       -0.0416627765
 H         -1.5604634555        4.5374598959       -0.1724930339
 H         -2.6399473773        2.3393680776       -0.2414195272
 H         -3.0797888999        0.6347131682        1.8063767539
 H         -5.5239824054        0.4971900022        1.8312329489
 H         -9.1030926468       -3.4739029686       -1.7828738545
 H        -11.1198368451       -4.7910291560       -2.3891696720
 H        -13.3611345187       -3.8864937071       -1.9231344676
 H        -14.7994825688       -2.1194841513       -1.0610438848
 H        -15.0620522159        0.1078771237       -0.0516680795
 H        -14.1024383790        2.1503076153        0.8202434875
 H        -12.1359772483        3.5350045075        1.3617061394
 H         -9.8807995549        2.6781383099        1.0043993101
 H         -8.4752562165        1.3270324273        2.7839819354
 H         -7.6425325952        3.3663039520        3.9020786704
 H         -6.2160723721        4.9554528977        2.6673336879
 H         -5.6331808907        4.5138276530        0.3112065256
 H         -6.4775386885        2.4812529714       -0.8098542682
 H         -5.4761111858       -1.1305821486       -2.1173452295
 H         -3.0045058530       -0.9961953004       -2.1356072476
 H         -2.2756844957       -2.5869783608       -0.1259533069
 H         -0.8858528104       -4.6021991732       -0.1921598607
 H          1.5721350344       -4.4177717246       -0.3109847109
 H          2.6492348629       -2.2165930952       -0.3020529506
 H          3.0296773647        1.1187815091       -2.1123970522
 H          5.5037327185        1.2128865118       -2.0875841242
 H          9.2039375418        3.4134401599       -1.8348921842
 H         11.2588874061        4.6501855321       -2.4802935445
 H         13.4721790096        3.6791004702       -2.0146865819
 H         14.8569600332        1.8789496808       -1.1351036722
 H         15.0535570697       -0.3363040133       -0.0851011720
 H         14.0330907317       -2.3253524313        0.8403082985
 H         12.0258378417       -3.6270944975        1.4354915544
 H          9.7980411148       -2.6997504158        1.0825440528
 H          8.4132942660       -1.2437040027        2.8471603342
 H          7.5370961738       -3.2396440333        4.0102052055
