154
 energy: -222.054986261372 gnorm: 0.000105607947 xtb: 6.7.1 (edcfbbe)
C           -1.58228358401559       -5.97558589019867        0.12548326393680
C           -0.70560811466332       -6.10997567256005       -1.12878708619058
C           -1.51027172968641       -5.60816052339846       -2.33156504468459
C           -0.36237040644266       -7.58891343642158       -1.36654155390691
C            0.58320893416412       -5.33007048110642       -0.92199057666271
C            1.41228856743668       -5.66759107377572        0.15729834101236
C            2.60175439078699       -5.01906218569122        0.41991288174576
C            2.98673277246505       -3.99844590237744       -0.43818523938367
C            2.16360150923604       -3.62630713717226       -1.52429452910139
C            0.97109158821035       -4.29096537460972       -1.76053735232057
C            2.82635403316983       -2.52409867148944       -2.17641086897937
C            2.50254443702998       -1.72934199642258       -3.26433353385048
C            3.36570291742228       -0.71274927395246       -3.65709572315982
C            3.05534299920081        0.22460015896210       -4.81441729574398
C            1.69620974198414       -0.06566802889748       -5.45855524867858
C            3.03430082115418        1.66926989370376       -4.29106996881555
C            4.13897418433100        0.07609329983428       -5.89313580533532
C            4.56821797577416       -0.54723127599242       -2.95727059264706
C            4.91499609252244       -1.32410133524787       -1.86986805867894
C            4.01845957732483       -2.29821129836085       -1.45769951121614
N            4.09993719212553       -3.18766868890991       -0.40634795538542
C            5.08190659739401       -3.18284780628592        0.59226981721102
C            5.79366176002089       -4.34590551795513        0.86723456312505
C            6.78884070749409       -4.34450952526125        1.82819025083643
C            7.09706808326086       -3.17679073214494        2.50906997389516
C            6.39556358894373       -2.01579817767999        2.23929848881931
C            5.37104315343442       -2.00840057635860        1.30056527389345
C            4.59749898855551       -0.77872332129514        1.05869484740929
N            5.28403364535740        0.36715259423461        1.09359817935570
C            4.55786172464774        1.44932058083335        0.75966202989551
C            5.26817964195268        2.72916147337349        0.69321315710889
C            6.55027826537880        2.84950471842548        1.22646066286502
C            7.22355324642789        4.05395205102957        1.15166596119338
C            6.63039838138020        5.14522580774016        0.53562579585828
C            5.35852530576279        5.02863368788058       -0.00414609738464
C            4.67717164386130        3.82970894177871        0.07537730418826
N            3.27815488137884        1.43060000444049        0.46579927077627
C            2.63963162082857        0.24174729640427        0.51764294649883
C            1.25196196444640        0.17012846206795        0.22184743128178
C            0.57574021365674       -1.07037656948858        0.21531644314226
C           -0.75187550139527       -1.14354208495094       -0.08901791563940
C           -1.49327614265627        0.02034638572643       -0.38857460393170
C           -2.89178089706043       -0.03648040501552       -0.63297348857394
N           -3.52485187107279       -1.22651813882309       -0.69023802679367
C           -4.82456886474806       -1.21768192633884       -0.88386694090968
C           -5.52306762679646       -2.50071042297272       -0.98948336268468
C           -6.90272725991991       -2.53386301659343       -1.18890330039586
C           -7.56209161790785       -3.74408829212470       -1.28883958737329
C           -6.85429016107849       -4.93223547612182       -1.19104920429646
C           -5.48260347596343       -4.90564157051943       -0.98981718271317
C           -4.81799755335834       -3.69922982876240       -0.88968439362348
N           -5.57762894451019       -0.10524321377022       -0.96827939495021
C           -4.88472142310982        1.03155434035467       -0.86280495685601
C           -5.67066153242606        2.27673895499549       -0.84172912306468
C           -6.80703576378449        2.39961550903587       -1.63190337695364
C           -7.53012241442081        3.57847692966024       -1.65011119736356
C           -7.12976203875807        4.64648041031943       -0.86201740256063
C           -6.01883659792885        4.52949132720831       -0.04587710607206
C           -5.28419038611041        3.34856249547966       -0.02430578131490
N           -4.17705634624312        3.23385106428597        0.82705197255875
C           -3.95422011925435        2.20827816474518        1.72289161759390
C           -4.79458449993607        1.18200888513514        2.12639087572339
C           -4.29781167800723        0.25662254115320        3.02249749022107
C           -2.99903988045309        0.32458346543068        3.54387086315942
C           -2.52771459828319       -0.77291797439505        4.48586112215652
C           -1.09481313929478       -0.55015609908531        4.97951641756236
C           -3.45210925976770       -0.82711067357730        5.71176820345680
C           -2.56962362762366       -2.11440109758870        3.73781523382824
C           -2.18918688280132        1.39154407972352        3.17265898524859
C           -2.66216879413827        2.33327366372261        2.27330825603530
C           -2.08341330321988        3.51415207940041        1.68266485292656
C           -0.84911417323918        4.13008677415310        1.81005151104067
C           -0.56611397501842        5.26740013040602        1.06211413827730
C            0.76751923477154        5.99205681585976        1.14968398542143
C            1.40385025786967        6.04920381839576       -0.24689459231977
C            0.52680562536074        7.41817750888375        1.66838570509475
C            1.75527998659358        5.29740993004096        2.09210780639020
C           -1.54788258279281        5.75926074004294        0.19007762389057
C           -2.78224059024076        5.16131517120894        0.03709828857680
C           -3.05473850427818        4.03293863592746        0.79780549070866
N           -3.58172268895633        1.11964074879274       -0.76280994123540
C           -0.81486118560990        1.25931624515425       -0.39104216273444
C            0.51405507937338        1.33189449679297       -0.09537633698509
N            3.31418240282424       -0.89029440032338        0.82084933404393
H           -1.80258221180066       -4.92815793986775        0.32177040838670
H           -1.09267544794901       -6.38805911534229        1.00286593003160
H           -2.52121825806973       -6.50457909907637       -0.01870077026972
H           -0.94360783767115       -5.71456336807348       -3.25371798399449
H           -1.79579163599617       -4.56581384198191       -2.20773001659281
H           -2.42111657142040       -6.19478441320528       -2.42908904955496
H           -1.27291802758477       -8.15819600846173       -1.53951940535281
H            0.27909478860158       -7.68966339320721       -2.23961457461637
H            0.15227108519502       -8.01973773895799       -0.51248214090495
H            1.11689033191342       -6.46452389381633        0.82130999188863
H            3.20594320839737       -5.29320202544440        1.27131441431547
H            0.36065961636045       -3.97934023882060       -2.59083935054332
H            1.57473474904936       -1.90907080900639       -3.78047432135576
H            0.89039577559372        0.04449036070781       -4.73562083727106
H            1.66741267553844       -1.06837522128126       -5.87840045940967
H            1.52209739302413        0.64165605426527       -6.26666464879086
H            3.99701200225163        1.95996674036601       -3.87897358676678
H            2.78758524148611        2.35495730174194       -5.09868481414291
H            2.28557277273505        1.77293318329270       -3.50766591451750
H            5.12109487778929        0.33356483820779       -5.50677456974037
H            3.91942691195406        0.73208011826247       -6.73239702806859
H            4.17149828546193       -0.94994874696499       -6.25357001304121
H            5.26012837996201        0.22230699174671       -3.26426862346541
H            5.85040656582023       -1.16231255850169       -1.35259392781006
H            5.57318733926773       -5.24144610823528        0.30549000098871
H            7.33390272072712       -5.25286816144205        2.03432489735336
H            7.88172564585728       -3.17141420605833        3.24985114399618
H            6.61690652031788       -1.09861769654677        2.76375021344580
H            7.00014547300804        1.98738138062934        1.69449666686442
H            8.21514572727122        4.14222698697490        1.57085914506131
H            7.16018530030270        6.08432791404512        0.47360564191085
H            4.90013524134869        5.87530128958779       -0.49312228519974
H            3.68827770277777        3.72066268175904       -0.34188401351495
H            1.13945128077694       -1.95883686557841        0.45818348693687
H           -1.26905884998409       -2.09155270767740       -0.09235429230254
H           -7.43792075659324       -1.59951603216004       -1.25953104048332
H           -8.63100961009231       -3.76220112349890       -1.44369904266590
H           -7.37117730646233       -5.87722893057082       -1.26967284252197
H           -4.93155674118834       -5.83053560918014       -0.91166543012944
H           -3.75166011895216       -3.66059640886203       -0.73230447801554
H           -7.09921125182095        1.55876247375979       -2.24267664975060
H           -8.40318725667288        3.66468984861352       -2.27840361901917
H           -7.69123497466920        5.56811559349817       -0.87112685491190
H           -5.72167315954615        5.34369051056042        0.59827425246858
H           -5.80081621912474        1.09214719965286        1.74145037066205
H           -4.94679413555331       -0.55381788169615        3.31775719074433
H           -0.39288578871388       -0.53311408799133        4.14809085358444
H           -0.81097024400045       -1.36580979968997        5.64116513979185
H           -1.01294395206284        0.37998149584833        5.53710472190803
H           -3.45410499369926        0.13355457326026        6.22257200858383
H           -3.10334540579765       -1.58826093798640        6.40597120216237
H           -4.47335630030887       -1.06651795959448        5.42967714963930
H           -1.91104830863442       -2.07841701490228        2.87182543547185
H           -3.57283424441822       -2.34688432124714        3.39002132999449
H           -2.23860499417641       -2.91773810993566        4.39227008170019
H           -1.18884133897756        1.49804269487603        3.55694596405356
H           -0.12381521112693        3.70264093333283        2.48122310946349
H            1.52914652506536        5.04360646210027       -0.64316102247294
H            2.38090060782363        6.52197300996553       -0.18663932491350
H            0.79345088718783        6.61577973513067       -0.94395934260307
H           -0.11812620867796        7.97904212028903        0.99790378163185
H            1.47368480806974        7.94618022818689        1.75531902694432
H            0.05661409526433        7.38667646584666        2.64907698457115
H            1.37373747796716        5.26893094330821        3.11020883193516
H            1.96763934805019        4.28247230117036        1.76224918355831
H            2.69487711505833        5.84589363998394        2.10174442734924
H           -1.33933753395601        6.63896822513632       -0.39802326898351
H           -3.50485764682949        5.55496419791619       -0.66128297739706
H           -1.37898923540920        2.14733272987260       -0.63404820725084
H            1.03044795245389        2.28040983067987       -0.09213456197002
