154
 energy: -222.113917858183 gnorm: 0.000093306630 xtb: 6.7.1 (edcfbbe)
C            8.13972482667350       -4.81546670861202       -0.10007468681650
C            6.96314882008588       -4.26462324382222        0.71137174909508
C            6.92336025561564       -5.00357449302548        2.05757457801743
C            5.67349588387961       -4.54446440740011       -0.07475823071596
C            7.08003931040705       -2.76787637973879        0.96644734483477
C            6.06286519082083       -2.12105504490307        1.68219715383544
C            6.08115974295970       -0.76789163923229        1.95337892005663
C            7.14801998624331       -0.02121725638712        1.47855485427597
C            8.20260006597404       -0.65298911305301        0.78830095807066
C            8.16045955085145       -2.01718670254034        0.53223000515166
C            9.16794414900395        0.37145838513908        0.49397705915511
C           10.39256315849162        0.35972306417372       -0.16238801121050
C           11.10691589088342        1.53803191573514       -0.30964718609966
C           12.46587044257355        1.59694546289457       -0.99491099603949
C           13.50653752289865        2.12351178295317        0.00499902077128
C           12.93650458724818        0.22531903550000       -1.48873849211553
C           12.38753041486005        2.53977142128536       -2.20499612569428
C           10.55247814234892        2.72204250235971        0.19588259114669
C            9.33853022275262        2.76306765920814        0.85230385402304
C            8.64932564421207        1.57231757394648        1.02057508773808
N            7.42696857058989        1.32397635835946        1.61896072236373
C            6.59483136984911        2.28188800878842        2.20240641979645
C            7.10981147254602        3.12013917517955        3.18908944884820
C            6.30257066436913        4.04870463512755        3.81844152564211
C            4.95721653157187        4.13723698385679        3.49180262084817
C            4.43416210317244        3.30973505140569        2.51773435040746
C            5.24233423595507        2.39393071632680        1.84632617365637
C            4.65061350907662        1.60779340775396        0.75953220396483
N            5.41338999106106        1.26149080173635       -0.26827580627770
C            4.82706871865859        0.52854220192438       -1.20981700501766
C            5.65197239214394        0.02593394987073       -2.30481735619678
C            5.10347783995782       -0.83593372216769       -3.25466797403852
C            5.89329706159884       -1.34004150319341       -4.26971186758962
C            7.23215032112980       -0.98668253045260       -4.34859675095266
C            7.77989460452952       -0.12477177860021       -3.41061186225362
C            6.99733675403262        0.38153379901898       -2.39113227465172
N            3.53175981911706        0.21465105202887       -1.20486310943499
C            2.83604235244749        0.64732423219422       -0.16098950572668
C            1.39936333688644        0.35792162917284       -0.13170417520364
C            0.71175909700139        0.13375554136173       -1.32339566843922
C           -0.64358456716049       -0.11897470536024       -1.30228104304738
C           -1.32310231209701       -0.18526713550130       -0.08697337206050
C           -2.75705175039242       -0.48930772234693       -0.06970153945839
N           -3.46538895424544       -0.18821665481996       -1.15063932287015
C           -4.75523267496302       -0.52213880639026       -1.11064751565488
C           -5.59488706978387       -0.15683128772812       -2.24793261610441
C           -6.92210069025811       -0.57960184335251       -2.30683694379617
C           -7.71721274221354       -0.20625825448543       -3.37289553534317
C           -7.20038923619966        0.58943037983163       -4.38401784749070
C           -5.87986108277010        1.00987471100030       -4.33167268157991
C           -5.07743294839485        0.63873546779377       -3.27028031150465
N           -5.32136928378032       -1.16167668867720       -0.09204103199203
C           -4.54825327451444       -1.37633248204036        0.96378195521871
C           -5.11615099875054       -2.05985975915850        2.12939642301108
C           -4.27457706329614       -2.85591087643348        2.90498513824930
C           -4.77001284289278       -3.59371972433464        3.96183762246742
C           -6.12267598557027       -3.53722614773447        4.26475859835627
C           -6.96496357510888       -2.72607671728040        3.52836138197024
C           -6.47736305056060       -1.97665221874792        2.45963535780102
N           -7.34787829722953       -1.13081677297352        1.76895650258151
C           -7.14251643786294        0.20849213682175        1.50164758723999
C           -6.12436150295883        1.05508055463521        1.90469699215443
C           -6.17814707130324        2.38112869217539        1.51416220979419
C           -7.22498128700904        2.89769699107489        0.74504377023341
C           -7.28192133778822        4.35801605903234        0.31510824959315
C           -8.55974818506924        4.99748176098980        0.87952462110758
C           -6.08519916781628        5.17451564167685        0.81294969657363
C           -7.29933458149477        4.42741599000074       -1.21929067525911
C           -8.25615919670200        2.04401313371956        0.37426316675757
C           -8.22623360857462        0.71074150573821        0.74971278535601
C           -9.12833679614743       -0.39157254417538        0.54880254253223
C          -10.34330866670543       -0.51404792584585       -0.11361410503259
C          -10.98669414900207       -1.74106547757995       -0.15297129859224
C          -12.33037899099214       -1.94468763974813       -0.84072982201745
C          -13.35377541540471       -2.43066406128806        0.19689441722471
C          -12.87048860347170       -0.65729602634128       -1.47133979277174
C          -12.18224994772181       -2.99511251383655       -1.95164079224129
C          -10.37217540553248       -2.83654290330741        0.46905587297269
C           -9.16627799688338       -2.74354689603640        1.13514619180017
C           -8.54802111594712       -1.50434060545621        1.19149915744425
N           -3.25824847191740       -1.04843413387368        1.02622875069582
C           -0.63315031209452        0.02419551441914        1.10570943649914
C            0.71613412675830        0.31085415499894        1.08228707830435
N            3.35380542194505        1.32073832524861        0.86067516409037
H            7.99608555548633       -5.88123419751620       -0.26591269201852
H            9.07813808949825       -4.68172506611079        0.43274737507863
H            8.20449225007114       -4.32846196312839       -1.07047768280621
H            6.06279416949132       -4.70334099442884        2.64933243968512
H            7.82274460851748       -4.78734402618452        2.63071824215341
H            6.86644168794959       -6.07758968397471        1.89359930478391
H            5.58053263783675       -5.61001149834024       -0.27423285918465
H            4.79245746464608       -4.22414416994780        0.47542662855631
H            5.69034113458805       -4.01396088275669       -1.02507510291726
H            5.22237074262609       -2.69370870798628        2.04605708155841
H            5.27839597680603       -0.31085201881044        2.51706581150775
H            8.97858376076724       -2.46647566058998       -0.00476175032646
H           10.75973078646966       -0.57608851368314       -0.54876342598229
H           14.49024293891337        2.15295688100588       -0.45912580193731
H           13.55441662029177        1.47196726842707        0.87545815894879
H           13.26043088322828        3.12615479126040        0.34356313033869
H           12.24892627029096       -0.18485417683581       -2.22460747629198
H           13.91182351676266        0.32625088730884       -1.96090264156268
H           13.03447216471364       -0.47490007393888       -0.66232250011062
H           12.12254295275027        3.55003739967307       -1.90578469434499
H           11.63838835455672        2.18747834922045       -2.91100447958849
H           13.34929922249134        2.57685862247720       -2.71255899453583
H           11.08728969394935        3.65139013471814        0.07335493213806
H            8.94000400758230        3.69948582170397        1.21334893064732
H            8.14805947066611        3.02045000683416        3.46824806761844
H            6.71976174197798        4.69307026986307        4.57738913533325
H            4.32055581708734        4.84984253721601        3.99289506586488
H            3.39230384606224        3.36956225075304        2.24026824549863
H            4.06151031788107       -1.10465317516373       -3.17252127959572
H            5.46618299649407       -2.01114027105174       -5.00014062338272
H            7.84815957966742       -1.38376753096035       -5.14184684277684
H            8.82065886379227        0.15266260454176       -3.47384147573467
H            7.41038775084124        1.04858932860261       -1.65113143117905
H            1.25523325630911        0.17285501233897       -2.25486266163988
H           -1.19289985483077       -0.28168118985312       -2.21685061858620
H           -7.31108629041013       -1.19389516508435       -1.51021427587371
H           -8.74382175895210       -0.53553169509578       -3.41561610728326
H           -7.82652321230007        0.88281147107735       -5.21350381261381
H           -5.47728984760852        1.62977021053092       -5.11902104586431
H           -4.04925139718319        0.96097131017515       -3.20785885903701
H           -3.22752049255317       -2.89474524658271        2.64414523032780
H           -4.10656089028908       -4.21309291525777        4.54532896562480
H           -6.51859716081055       -4.11328530227729        5.08733099596186
H           -8.01103644130228       -2.64854820116104        3.78470511235633
H           -5.29980766130785        0.69779068143684        2.50760016505853
H           -5.37142653314739        3.02317038912992        1.82923741688811
H           -9.45020144685520        4.50697514681374        0.49722057393743
H           -8.60431858033644        6.04909265002661        0.60440340049080
H           -8.56840269112656        4.92299154098067        1.96520868382569
H           -6.04330985231807        5.18636428906638        1.89988749038982
H           -6.18167935903100        6.20246649011475        0.46915434592361
H           -5.14973471006988        4.77741139408168        0.42401388576412
H           -8.14859782417391        3.88996819395663       -1.63145180976415
H           -6.39055294381688        3.98639006026667       -1.62453284496234
H           -7.35677080958190        5.46362825351339       -1.54599078517313
H           -9.09116050062380        2.40391329662513       -0.20620688027982
H          -10.75923109034336        0.35758550540733       -0.59029299861709
H          -13.05719583104121       -3.38115028944847        0.63163939166892
H          -14.32814520366130       -2.55923597935162       -0.27004114652662
H          -13.44905226164161       -1.70311548020556        1.00068909467762
H          -13.02157394088315        0.11315431881575       -0.71867321280648
H          -13.83075776405942       -0.86028543658144       -1.94152072177391
H          -12.19564107054885       -0.28122824995834       -2.23670212008491
H          -11.44447262438611       -2.67130819537376       -2.68277820195422
H          -11.86518972438491       -3.95449607864746       -1.55243182116073
H          -13.13338213388187       -3.13652190791326       -2.46088381516336
H          -10.85153698189138       -3.80282396256987        0.43333248406700
H           -8.71972098849645       -3.61602963389654        1.58851321409101
H           -1.17272595867271       -0.03265258445920        2.03880041091808
H            1.26157924676399        0.49060943894922        1.99616110146283
