94
 energy: -141.541003005327 gnorm: 0.000049647833 xtb: 6.7.1 (edcfbbe)
C          -10.06914635939907        2.07381665430011        0.77007366098765
C           -9.37256626959327        1.02995136087529       -0.12326596160071
C          -10.39537280594264        0.36703160039139       -1.06519028934054
C           -8.32302739012887        1.73093043947634       -0.96527515347663
C           -8.71336677712709        2.73251550729967       -1.84457830125324
C           -7.81055287960383        3.38790087123695       -2.66124649447451
C           -6.47604609754503        3.02606217818879       -2.61883066410326
C           -6.06063307201050        2.03567578919883       -1.75333359563507
C           -6.96713328031588        1.39230461674414       -0.90500570277254
N           -6.51752033286977        0.40199258609807       -0.04022151100260
C           -5.13380517294393        0.10272783044262        0.00660224881114
C           -4.24352467477153        0.99622314995573        0.59901227725986
C           -2.89809157899444        0.69843827314492        0.64385079190432
C           -2.41710439990605       -0.50041638756216        0.11336998284467
C           -0.96622870310791       -0.76824087949653        0.16543303136211
O           -0.14282337187018        0.13154834983168        0.25658345441209
C           -0.52680948629473       -2.18515428305089        0.11533685945167
C           -1.17231711060030       -3.18888939305989        0.83280433319263
C           -0.67442562960360       -4.47953151732380        0.82140931043891
C            0.46954550251624       -4.77868777256326        0.09717198839713
C            1.12787936293728       -3.78507127557794       -0.60798800026216
C            0.63971982059653       -2.48457020891522       -0.59715177180636
C            1.28001186638367       -1.42078097130137       -1.42869744048883
O            0.68810133975229       -0.94417429538352       -2.38379073890960
C            2.65365168579382       -1.02664126440199       -1.06470066107779
C            3.24602338261115       -1.42672330940677        0.13406210326955
C            4.52453694243965       -1.01305005169997        0.44777795580462
C            5.23450171066198       -0.19474896826482       -0.42901579613836
N            6.54738578942550        0.22404905829820       -0.10434603457789
C            6.72953953094430        1.14792686439911        0.91827591500111
C            5.61725841471018        1.69184975654557        1.56842745070797
C            5.76704137028083        2.59996207061000        2.59575932055217
C            7.03392842565432        2.99352963795233        2.98786596587494
C            8.13370188908452        2.48483932264357        2.32234366294114
C            8.01192658951447        1.57066926783288        1.28378198993430
C            9.26016419689622        1.08541908434407        0.57114163208526
C           10.17759283268580        0.38896673409802        1.59386462647544
C            9.97600081084805        2.30198211790345       -0.04578653769629
C            8.93183106759064        0.09962747609718       -0.53411544320219
C            9.96384804321765       -0.44964026492990       -1.28410102515191
C            9.73493487846097       -1.37758804709292       -2.28298179703294
C            8.43907203769108       -1.79078271477895       -2.53506248387059
C            7.39537894441765       -1.26065502497366       -1.80570084404154
C            7.62063424268084       -0.29713402304651       -0.81747113613642
C            4.64501900180791        0.21188853486626       -1.62476106990855
C            3.36563748658419       -0.19678404836159       -1.93397511023565
C           -3.31033017318060       -1.38532756955832       -0.49274220862261
C           -4.65644665889269       -1.08425356053290       -0.54499062934094
C           -7.38832627750778       -0.29729737405740        0.78624046913606
C           -6.88405575388798       -1.25000589405389        1.67695617236715
C           -7.72346158085769       -1.96548295632239        2.50512856601932
C           -9.08694061453241       -1.73539909528171        2.46794919310495
C           -9.58497915526712       -0.77285451139426        1.60944733767952
C           -8.76259562048863       -0.03709358543322        0.76605166771661
H          -10.53192471908713        2.85111989492154        0.16848075587670
H           -9.34146347319746        2.53984731174409        1.43251446620332
H          -10.84024789173310        1.61083624936319        1.37941298925218
H          -10.86854368315062        1.10584752323746       -1.70585286543537
H          -11.17222469674041       -0.13915003253279       -0.49901102955906
H           -9.89687089448880       -0.36631761732688       -1.69697171976264
H           -9.75423145147754        3.01284006961344       -1.90001671856029
H           -8.14843866853806        4.16445683157598       -3.33093125465388
H           -5.75446922221197        3.50964365085210       -3.26096015904670
H           -5.01949781953584        1.75167554851146       -1.73981230424666
H           -4.61649367764691        1.91935370684263        1.01708336356538
H           -2.19469190933106        1.37937794318328        1.10025185202087
H           -2.04998751255352       -2.94750154619940        1.41322724379772
H           -1.17851304742218       -5.25343259139361        1.37994101018745
H            0.85372036961937       -5.78733254497727        0.08413268608487
H            2.01695291007503       -4.01392952659418       -1.17678349672144
H            2.70107306185534       -2.05353870315733        0.82306990831465
H            4.98543050044246       -1.31722968275434        1.37597243630356
H            4.62310033427077        1.40624090909365        1.26057642521836
H            4.89075646149112        3.00098652280883        3.08372488568595
H            7.16557900584262        3.69931819163520        3.79420707826940
H            9.11566289461891        2.81631304701358        2.62389964113274
H           10.44988595506993        1.06918004552053        2.39597207038111
H           11.09046623404816        0.03807240085512        1.12088455013000
H            9.66488732191307       -0.46742718893814        2.02870965663668
H           10.24034858850341        3.02615180547091        0.71966382067801
H            9.32306427770503        2.78920396451826       -0.76817509591711
H           10.88597143142802        1.99849110332232       -0.55577696074198
H           10.98126535014832       -0.14915019085163       -1.08494357409701
H           10.56078337382981       -1.78109708553884       -2.84932355676932
H            8.23663388137704       -2.52959306420707       -3.29663958262934
H            6.39046549845881       -1.60137133220612       -2.00105397040108
H            5.19648546718888        0.85080281794089       -2.29862567263252
H            2.88839098568077        0.11794439436103       -2.85050660730439
H           -2.94529219424620       -2.29257010607611       -0.94913555756528
H           -5.35074581953443       -1.76364310035292       -1.01661930770487
H           -5.82058998599545       -1.42564976198767        1.72448247641968
H           -7.30888205372789       -2.69830202298983        3.18178042388179
H           -9.75618613884616       -2.29072207499570        3.10777481074116
H          -10.64886298330689       -0.59059864425996        1.60298531726507
