94
 energy: -141.478739520893 gnorm: 0.000149561669 xtb: 6.7.1 (edcfbbe)
C           -5.72142744746265       -2.68530713090626       -0.03951866596083
C           -4.52911139025818       -2.93228949607658       -0.98535422626772
C           -5.03229038042297       -3.42937670238351       -2.35536874130676
C           -3.79333801321567       -1.62418000122319       -1.17817310609008
C           -4.45391313345643       -0.53587214517509       -1.73264707331661
C           -3.82895944824107        0.68406101297842       -1.91524055411699
C           -2.51431197270945        0.84906050639792       -1.50163074683452
C           -1.83622150997674       -0.20926196707948       -0.94227303766498
C           -2.44962168693806       -1.46398382250624       -0.80300060964157
N           -1.72367032193163       -2.52212126661698       -0.29713093868748
C           -0.34054488584963       -2.32116029022902       -0.02632842582473
C            0.10877069992115       -2.15361044915451        1.28383896825676
C            1.43168728870150       -1.86951742305140        1.52018235804269
C            2.35365200270653       -1.74910412772291        0.46410168936268
C            3.69764285524000       -1.26629982282855        0.75663063538342
O            3.96863590127999       -0.77871401121838        1.88229736261900
C            4.72353135432868       -1.38838833436513       -0.28853212200017
C            4.92498663687125       -2.62475625178966       -0.91247590945302
C            6.01758614135706       -2.84423044642084       -1.72119444341306
C            6.96086515434948       -1.83170554938973       -1.91687116372306
C            6.77409470259126       -0.60402502692535       -1.33028225647476
C            5.63888604215883       -0.34150254026389       -0.55036051928695
C            5.41248899225852        1.01506000927832       -0.06912899002150
O            6.33878403265319        1.81398187442689        0.14976467970390
C            4.00265751186512        1.44765842600021        0.08223949455398
C            3.03684479941765        1.13256414862537       -0.87509626343050
C            1.74108662922261        1.58355900932409       -0.74361868810127
C            1.38625735278757        2.36777381202344        0.35403881228640
N            0.04774887855352        2.82967290233112        0.51271902929981
C           -0.41562389080625        3.85794930587120       -0.28398773645795
C            0.40613678387154        4.37748593293390       -1.29593063490369
C           -0.03628856939313        5.39109194075880       -2.11564158614255
C           -1.30529913133890        5.92093363285338       -1.93389145410855
C           -2.10744702849637        5.43396197318926       -0.91818813395313
C           -1.69473611793788        4.40532811139416       -0.08142480843164
C           -2.58493172761701        3.96462825183785        1.06073234376106
C           -3.98513155109993        3.59775344340307        0.53427360183189
C           -2.69212577201788        5.14327032502840        2.05210879907873
C           -2.00773118695806        2.77539984036871        1.79595697024071
C           -2.73739360569532        2.17389239711633        2.81233500583552
C           -2.24528052465041        1.09782663907346        3.52761965901195
C           -0.99054343599463        0.59104548672130        3.22340193821405
C           -0.24491760335207        1.16221787835201        2.21750757466376
C           -0.73142321037680        2.26729598272562        1.50386195570391
C            2.34739930944328        2.71095855147475        1.29826290141818
C            3.64488944499524        2.26351742267369        1.15679883991625
C            1.88968090393709       -1.96077561478537       -0.84547682892762
C            0.56509573595280       -2.24237175264349       -1.08502030620318
C           -2.28659322351528       -3.76293950315527       -0.08974868551232
C           -1.49251093450888       -4.80632141123168        0.41000834106564
C           -2.03023666154110       -6.05096012519465        0.64562603902680
C           -3.37214436603855       -6.28382765636853        0.37977255840787
C           -4.15306581891638       -5.26532186922374       -0.13571914012559
C           -3.63934153765894       -3.99991521121245       -0.38585561663295
H           -6.38927390039669       -1.93502510294951       -0.45179549021673
H           -5.36245988966656       -2.33517044766311        0.92641679276811
H           -6.28743604498806       -3.59914164031793        0.11328677310440
H           -5.69039400408406       -2.69723482759159       -2.81327881651573
H           -5.57998327245858       -4.36083966241587       -2.24912758768921
H           -4.18876473610185       -3.60005786748371       -3.02180479164396
H           -5.48338470834550       -0.63825495387262       -2.03736265744872
H           -4.36574377067999        1.50344457670301       -2.36823021989528
H           -2.02108405285839        1.80250102922044       -1.61703739781401
H           -0.82115579745472       -0.07994332550734       -0.60290634057299
H           -0.59438826764358       -2.23310736114093        2.09911535366085
H            1.80005131709249       -1.71289310537470        2.52389889648543
H            4.23624904665990       -3.43275720659699       -0.70642385460669
H            6.16438175895930       -3.81153079702610       -2.17921527213448
H            7.83155086981202       -2.01548446589730       -2.52903323165051
H            7.47954864243671        0.20270458104380       -1.47575921321112
H            3.31484473232559        0.53626242904086       -1.73148949751056
H            0.99991577761439        1.33515902431978       -1.48868270706032
H            1.40105174888449        3.98290657468367       -1.42624366887883
H            0.61184616415708        5.77303858348744       -2.88961199050099
H           -1.65958268811962        6.71877229427691       -2.56821919401490
H           -3.07772295556235        5.88122988748549       -0.77110054838429
H           -3.93169393989972        2.68507698005400       -0.05348120475766
H           -4.38744533381836        4.39092234581511       -0.08723808476622
H           -4.67430628594988        3.43851866823639        1.35749072106477
H           -3.14097429034793        6.00727892523278        1.57048736603252
H           -1.70339126335924        5.42368143033828        2.41077625100749
H           -3.30142985517779        4.86643449503294        2.90783041847286
H           -3.71344092225949        2.55683168960516        3.06350615723566
H           -2.83465183049849        0.65776797930466        4.31739977259041
H           -0.58900487371198       -0.24678759654457        3.77215831408665
H            0.72485113995795        0.75625169049237        1.97579757819359
H            2.07212344111217        3.32741410968699        2.14180997746834
H            4.40113318086333        2.52329734443609        1.88227215438164
H            2.57495780260314       -1.87845750839474       -1.67453866988681
H            0.21122653602769       -2.38451847727845       -2.09606589006268
H           -0.44774970000243       -4.62621523832769        0.60795019969216
H           -1.40407174807690       -6.84018617174379        1.03324026868232
H           -3.80358730497765       -7.25561208529740        0.56426681064639
H           -5.19013881816129       -5.46986719406691       -0.35047710643489
