94
 energy: -141.541663984731 gnorm: 0.000058852291 xtb: 6.7.1 (edcfbbe)
C           -4.80370258579086       -2.06386874768381        0.91276973658782
C           -4.51660405756968       -2.54156652018348       -0.52888526421938
C           -5.85351816677988       -2.83059438959536       -1.21521020104951
C           -3.73885622789650       -1.43018207961845       -1.20935409577846
C           -4.34611392798206       -0.45469141290910       -1.98524063371517
C           -3.65245436031927        0.65809959739759       -2.43145120955508
C           -2.33425833726629        0.83593254670644       -2.05250423484751
C           -1.69859497335703       -0.13792298885456       -1.30937292521307
C           -2.36912689940927       -1.30216511095887       -0.93429643581894
N           -1.69867744023464       -2.32785822973420       -0.27137104478537
C           -0.31737227510313       -2.18821549704730        0.00255332308817
C            0.12236279574997       -2.16775515868687        1.32287122176703
C            1.45633017922666       -1.95379869163458        1.59882150270160
C            2.38222159513371       -1.78401565614848        0.56688602480729
C            3.76990182480253       -1.42494049804087        0.91659367623847
O            4.08130635845044       -1.08077919856034        2.04721332454615
C            4.79923362960368       -1.48599425829264       -0.15951245913107
C            5.02506827208806       -2.67322704033742       -0.84853529794124
C            6.06968230160912       -2.76968214530762       -1.75221006539515
C            6.90640237663863       -1.68594338912615       -1.96836588087770
C            6.69694235592129       -0.50299902081808       -1.28150882510406
C            5.64184942830617       -0.38905250171625       -0.38314263801520
C            5.41551500211881        0.89994837758785        0.32834729492642
O            6.32824811469110        1.51077254116545        0.85549241551084
C            4.01922769382309        1.39199284321457        0.32718258460096
C            3.15506458062711        1.11736340141039       -0.73208774710673
C            1.84691927662118        1.55588325781027       -0.69843534803944
C            1.37272223192647        2.26757620576759        0.40146759857420
N            0.02022118517531        2.67431446523721        0.47194975644000
C           -0.46420893151980        3.63825750886806       -0.40727575580963
C            0.37275849447663        4.16670427870100       -1.39497606315138
C           -0.08538584433330        5.11166338124104       -2.28957346220595
C           -1.39017640139396        5.56263023957182       -2.20621621697946
C           -2.20699103242050        5.07478152912582       -1.20328935412984
C           -1.77329362846700        4.12075583126586       -0.29165277487124
C           -2.70008897563864        3.69685928567129        0.83175877535508
C           -4.02686673206632        3.18467301654505        0.24371891128572
C           -2.95689091441914        4.92536269640244        1.72714603448512
C           -2.08666967257832        2.60107454025420        1.68028375301990
C           -2.83150858036032        2.03881051395717        2.70878219408774
C           -2.33288237563808        1.03190315768378        3.51370057656549
C           -1.06017758663911        0.54712693071117        3.27375488156867
C           -0.29967764392533        1.08656126535073        2.25771244662988
C           -0.78484650153629        2.13544484677449        1.47123461735225
C            2.24589926459486        2.57449477962890        1.44508974491369
C            3.55771767337138        2.15220078436956        1.40162487485927
C            1.94519141090580       -1.87018064095319       -0.75673883847407
C            0.60870022436156       -2.06422401163310       -1.03363325699767
C           -2.26182884603815       -3.60142866499260       -0.21821664042853
C           -1.44789924189202       -4.71489853078193       -0.00741753183794
C           -1.98164944427978       -5.98797703364664       -0.00392522222176
C           -3.33252149262206       -6.16678672273452       -0.23735613240571
C           -4.14268966149555       -5.06339841523622       -0.44656615920411
C           -3.63685044809427       -3.77253353667238       -0.42758610063085
H           -5.39975494839723       -1.15380654067470        0.89392130617636
H           -3.87550353905807       -1.85412828068929        1.43891391610260
H           -5.34620932698530       -2.83202808111461        1.46011019590828
H           -6.47410474673887       -1.93911193486399       -1.22486421886164
H           -6.40490936788089       -3.58944514181211       -0.66743907402081
H           -5.70090116979272       -3.17026499978914       -2.23740138524729
H           -5.38811197934650       -0.54207905958215       -2.24495478451000
H           -4.15196001646418        1.39947907409540       -3.03701369225720
H           -1.79989490946841        1.73178778192218       -2.33320841737736
H           -0.67519888430754        0.01058292308729       -1.00476631700417
H           -0.59149061884040       -2.29556882747650        2.12155303951534
H            1.80912709728615       -1.89818932602692        2.61832395856893
H            4.39227438419127       -3.52657893813411       -0.65437394298720
H            6.23584296339377       -3.69598282579426       -2.28081230171550
H            7.72536536749386       -1.76309677374746       -2.66707111405259
H            7.34051899377179        0.35062415247317       -1.43552928292676
H            3.51654505095941        0.57505353959959       -1.59253014693315
H            1.18221336589935        1.34099540880808       -1.52157956160580
H            1.40080685453219        3.84546885216305       -1.45554832371723
H            0.58289720292701        5.49891450510161       -3.04471948893861
H           -1.76300653324349        6.30073327915352       -2.90033251767927
H           -3.21134713430884        5.46210457139303       -1.12621623612345
H           -3.84651050266753        2.28901444939504       -0.34680516546960
H           -4.48599064217033        3.93346836396835       -0.39479402918388
H           -4.73268959245871        2.94141312041031        1.03235373697614
H           -3.42068827166475        5.72683868202974        1.15831572899669
H           -2.01665428018921        5.29353643157915        2.13474624831038
H           -3.61167673545305        4.66708406667429        2.55519602989547
H           -3.83040097644947        2.40039236134206        2.89812251945572
H           -2.93572316432118        0.62502021096297        4.31166609796992
H           -0.65230473017232       -0.24922021297176        3.87851538586120
H            0.68592136611322        0.68857193852650        2.07181286727470
H            1.88299082477005        3.14120580714452        2.28978655591025
H            4.24059646951273        2.38253488966257        2.20580267239411
H            2.64868523475213       -1.76963711753091       -1.56772759041862
H            0.26624028647149       -2.11697384190255       -2.05665392861460
H           -0.38827363822373       -4.58202145634042        0.14990499859251
H           -1.33711931458482       -6.83732647200955        0.16894129444439
H           -3.75940560273075       -7.15846679246751       -0.24995251369805
H           -5.19360387973201       -5.22912349680118       -0.61734544237078
