62
 energy: -95.239649158703 gnorm: 0.000061416196 xtb: 6.7.1 (edcfbbe)
C            2.47928631271428       -3.59807409516316        1.50738730425045
C            1.20219396169569       -3.66615611717523        0.97886343923748
C            0.68482118455511       -2.58776667313407        0.26817677046914
C           -0.68484341090830       -2.58776648847436       -0.26819479544529
C           -1.20221521712985       -3.66615204892364       -0.97888856348273
C           -2.47930549686331       -3.59806518686154       -1.50741703889717
C           -3.25585415656538       -2.46560554688167       -1.33878182604926
C           -2.75864147470170       -1.39211275338252       -0.60420281970456
N           -3.52329708295310       -0.23720791418004       -0.40180906139658
C           -4.83595838403195       -0.19288142450996        0.02775936230677
C           -5.69823912656488       -1.23034063297820        0.35244368789712
C           -6.96930152693322       -0.90320126383121        0.78460038969854
C           -7.37910704292408        0.42269260931231        0.90393602978426
C           -6.51646374375819        1.45984480572600        0.61140338927767
C           -5.23357633132967        1.15587966745141        0.17577443233639
C           -4.09688916859923        1.95906403830217       -0.17821334535747
C           -3.87619281502991        3.32922502049112       -0.22940469420290
C           -2.63652025746380        3.78589366922418       -0.62989388882358
C           -1.63183972800544        2.89526377131551       -1.00116920789770
C           -1.83094749058427        1.52860427305865       -0.96353544480038
C           -3.06238120341015        1.06078294808593       -0.52605072949390
C           -1.47862725689701       -1.46485434673794       -0.06938297136525
C            1.47860440162050       -1.46485263545913        0.06937015529676
C            2.75862205112348       -1.39211816244956        0.60418194933901
N            3.52328445964735       -0.23721706022118        0.40178839335700
C            4.83594365262169       -0.19290155995393       -0.02778677974772
C            5.69820598139192       -1.23036664976984       -0.35250020329218
C            6.96927728812219       -0.90323725886586       -0.78463881231321
C            7.37911560616647        0.42265222305617       -0.90390835731403
C            6.51649423264577        1.45981163441532       -0.61133582232192
C            5.23359248054189        1.15585716829677       -0.17574225262368
C            4.09690052336915        1.95905016982899        0.17821153633090
C            3.87621627924285        3.32921268742134        0.22940461777509
C            2.63655705161714        3.78589227732450        0.62992378570508
C            1.63187529756573        2.89527093166701        1.00121571002206
C            1.83096492018431        1.52860901658329        0.96356265148076
C            3.06238902681912        1.06077762622842        0.52606285677976
C            3.25583700252006       -2.46561626725778        1.33875132065623
H            2.87020350556447       -4.43104979380653        2.07300812542013
H            0.59366972649394       -4.54375800368703        1.13749950826721
H           -0.59369403413546       -4.54375634141677       -1.13752218473209
H           -2.87022744286784       -4.43104348783949       -2.07303082173510
H           -4.23638860252184       -2.40251280659440       -1.78510929320707
H           -5.38642693411709       -2.26161552796066        0.28602766987283
H           -7.65916425512957       -1.69425875995869        1.03954121516312
H           -8.38240342079522        0.63682856839764        1.24099964226270
H           -6.82628103582292        2.48808772523596        0.72215885017914
H           -4.66236286543755        4.01892778528974        0.03860781808324
H           -2.44176524090510        4.84736998129463       -0.66876104385904
H           -0.67601093038326        3.27871994009175       -1.32693297720697
H           -1.05198850007539        0.85228286493634       -1.28093240232791
H           -1.10997997693628       -0.64789447789955        0.53233317766786
H            1.10995921191781       -0.64789254773223       -0.53234734831465
H            5.38639111020481       -2.26163982254520       -0.28606755315914
H            7.65913785145774       -1.69430063161713       -1.03956814235973
H            8.38240416850192        0.63678037446884       -1.24100084935413
H            6.82630393552085        2.48805182783891       -0.72213915706215
H            4.66241947367944        4.01891009117111       -0.03852432334519
H            2.44183100050058        4.84737177466890        0.66884958746210
H            0.67604323489380        3.27873457990122        1.32696126688036
H            1.05198044853372        0.85229223318198        1.28090713027693
H            4.23637077233477       -2.40252399700477        1.78508093764398
