62
 energy: -95.239673144171 gnorm: 0.000032233474 xtb: 6.7.1 (edcfbbe)
C            2.50612222845680       -3.61793780713375        1.46776605572123
C            1.22207651909551       -3.68874540880107        0.95663078519979
C            0.68832115148194       -2.60703364355716        0.26311324374138
C           -0.68809542384784       -2.60742672704673       -0.25517143927221
C           -1.22045112624739       -3.68906775931028       -0.94987365999578
C           -2.50373061740466       -3.61839871092850       -1.46293853467466
C           -3.27100249027690       -2.47889155625361       -1.29851166137762
C           -2.75813961695491       -1.40100726202336       -0.58145646556069
N           -3.50735631593127       -0.23447592654991       -0.38815309285910
C           -4.81622745492207       -0.16514962319766        0.04953611465916
C           -5.69252730188568       -1.18515810898962        0.39148932414120
C           -6.95555490816099       -0.83321864035165        0.82784379242448
C           -7.34395174459950        0.50014748858493        0.93474158430410
C           -6.46719970968877        1.52025875103957        0.62480986695120
C           -5.19219339430018        1.19125343771190        0.18439791697768
C           -4.04605036258215        1.97293460991590       -0.18669555340113
C           -3.80501588922840        3.33893621742769       -0.25531505855795
C           -2.56149933465039        3.77210825212287       -0.66969466684203
C           -1.57343908723568        2.86211048580274       -1.03853815316705
C           -1.79328840812769        1.49924339076476       -0.98421651843997
C           -3.02797570603172        1.05505938329442       -0.53143680154176
C           -1.47402903241402       -1.47866508663330       -0.05736743257843
C            1.47354321467440       -1.47786240797850        0.06477554563724
C            2.75875028954335       -1.40046822102738        0.58612767300227
N            3.50812134441183       -0.23437862058765        0.39038675938378
C            4.81451086167902       -0.16625381682410       -0.05474313849445
C            5.68814647905165       -1.18724030082868       -0.40051605386181
C            6.94883680477539       -0.83660160146337       -0.84457537374271
C            7.33742901115138        0.49641617226262       -0.95514151882562
C            6.46323909799992        1.51745330238220       -0.64103369316944
C            5.19056824426798        1.18979173352605       -0.19290469042651
C            4.04700929514846        1.97249736047093        0.18400025625794
C            3.80706403276255        3.33867329267013        0.25301317311936
C            2.56615640643715        3.77276136005294        0.67422080344723
C            1.57958019191531        2.86357477116324        1.04904357255536
C            1.79826902494454        1.50054169254973        0.99418566968917
C            3.03030136437301        1.05550029356468        0.53509191901737
C            3.27309529674238       -2.47841772259407        1.30196929731726
H            2.91007635004214       -4.45451892660684        2.01873418670747
H            0.62138144556690       -4.57158362891881        1.11595311093509
H           -0.61920037244167       -4.57159893373318       -1.10879619412200
H           -2.90667067036851       -4.45492598737784       -2.01473526088165
H           -4.25567019289037       -2.41404299572642       -1.73534884248416
H           -5.39749830305396       -2.22192739790954        0.33484844620579
H           -7.65606634227996       -1.61042056463073        1.09601296378942
H           -8.34153230484251        0.73379395348093        1.27579245798140
H           -6.76010786704898        2.55447387331620        0.72555685614554
H           -4.57873680250522        4.04350917961176        0.01023277737943
H           -2.35072780584227        4.82993163049295       -0.72189966891967
H           -0.61425564912568        3.22720602332449       -1.37528154610624
H           -1.02757259398865        0.80770128954654       -1.30098421202512
H           -1.09532688130488       -0.65887501915837        0.53404443301246
H            1.09366587951323       -0.65765919077571       -0.52532848504503
H            5.39270781720594       -2.22372765491951       -0.34082023408310
H            7.64729798752197       -1.61453330403046       -1.11595362611874
H            8.33309577172617        0.72904594142763       -1.30242942501206
H            6.75626197241046        2.55135372514839       -0.74466336843285
H            4.57963713547503        4.04269342400405       -0.01730833780730
H            2.35633243046476        4.83074387181926        0.72708361655234
H            0.62252527006871        3.22951424067032        1.39088542108774
H            1.03387766913990        0.80941657386280        1.31510636086539
H            4.25876404110096       -2.41362974241824        1.73657246991755
