62
 energy: -95.134017972811 gnorm: 0.000118756583 xtb: 6.7.1 (edcfbbe)
C            2.73236452010003       -3.79217150395921        0.78426254138967
C            1.39884607331802       -3.80175125560960        0.49081373678263
C            0.68226033462870       -2.58714081024058        0.16683392353568
C           -0.68376273909381       -2.58776261398728       -0.16599516520193
C           -1.39900266618641       -3.80258390977506       -0.49203917151429
C           -2.73246601126512       -3.79392304314326       -0.78587245157962
C           -3.47279460977969       -2.61027903545073       -0.77402835408530
C           -2.80237733576894       -1.40260077721652       -0.43808709730966
N           -3.53898454095033       -0.21164002975649       -0.41112887546134
C           -4.75188444827303       -0.03455662920956        0.21995183029737
C           -5.48248580413158       -0.92584064655250        0.99480658608452
C           -6.67485451304990       -0.48314130843444        1.53583229992016
C           -7.12783157233652        0.81777837866378        1.33007037559686
C           -6.38944426976395        1.71970584577136        0.58607029855389
C           -5.19155053416628        1.29737428165479        0.02965414839222
C           -4.18041749986766        1.94938543557856       -0.75741895965485
C           -4.04919833697708        3.23187292856909       -1.26884788205825
C           -2.93002777884026        3.53223399920236       -2.02286432112609
C           -1.96142391720209        2.56600963136738       -2.28417077947643
C           -2.07069038836844        1.28159071625701       -1.78565724692591
C           -3.17751433859716        0.98097292584763       -1.00288170399218
C           -1.46304282533189       -1.39199302400371       -0.16492791592272
C            1.46031138397570       -1.39048292717673        0.16686661712696
C            2.79989173534248       -1.40030988146344        0.43869168006482
N            3.53680942658813       -0.20955047737400        0.41054174505269
C            4.74930920017753       -0.03468321095488       -0.22193413157057
C            5.47682456640121       -0.92716036999448       -0.99833705857561
C            6.66948117627341       -0.48686896076377       -1.54064862081975
C            7.12568897488722        0.81289223822635       -1.33466575841448
C            6.39024103284618        1.71610179139525       -0.58929413774592
C            5.19206667433720        1.29617978901286       -0.03164412989974
C            4.18312577408860        1.95001675938055        0.75670743065756
C            4.05533957316279        3.23262919440542        1.26865262604952
C            2.93746482838648        3.53537873468121        2.02362342990746
C            1.96673110235282        2.57136930286790        2.28519280576176
C            2.07264798414069        1.28679067796401        1.78629595593008
C            3.17828820005184        0.98370578798343        1.00281918363549
C            3.47146106004158       -2.60777592422889        0.77345207869411
H            3.23124798628632       -4.71567781087681        1.04237575783121
H            0.85786494906133       -4.73203052062280        0.54193085112983
H           -0.85708824652403       -4.73224931300981       -0.54452164236555
H           -3.23027721823079       -4.71760928079230       -1.04541290723205
H           -4.50867794793950       -2.59063635636853       -1.06890461304539
H           -5.12551027716753       -1.92743131450392        1.17951776627312
H           -7.26441936161442       -1.15865846614368        2.13769223857865
H           -8.06443866525626        1.12639085259434        1.76991143690761
H           -6.73298362704814        2.73308065066880        0.44310960542807
H           -4.80941228063396        3.97560596082837       -1.08365124325085
H           -2.80642322761150        4.52627628216482       -2.42593846887720
H           -1.10702926671463        2.82508421483825       -2.89164042696721
H           -1.32583047568886        0.53385006163545       -2.01081309001636
H           -1.00908143465436       -0.45974869692021        0.13157405821574
H            1.00524341288135       -0.45833825864357       -0.12826183840359
H            5.11721072075150       -1.92776484038963       -1.18326978025835
H            7.25665297976266       -1.16334625761772       -2.14375774122925
H            8.06245396692767        1.11960271261573       -1.77548143683815
H            6.73627266728643        2.72860490171287       -0.44623076186433
H            4.81717287809770        3.97461255444815        1.08305925984646
H            2.81653932419668        4.52957698199808        2.42714265840994
H            1.11331217178037        2.83235524960976        2.89321244647698
H            1.32608229724959        0.54082944035824        2.01168079909337
H            4.50739287537771       -2.58734749917458        1.06811429824654
