55
 energy: -91.221557446372 gnorm: 0.000149768654 xtb: 6.7.1 (edcfbbe)
C           -0.00333556087949       -0.65726313557111        0.83933459083915
C           -0.00229215684068       -1.82205151370899       -0.10740618595288
C            1.20192817332080       -2.39734612569363       -0.52392323204828
C            2.51007552393211       -1.84077813644166       -0.12645959518822
C            3.44212713272727       -2.64044238610335        0.52737688824712
C            4.67375261905168       -2.12587502735961        0.88053624697453
C            5.00752457979957       -0.81206272122489        0.58234685405987
C            4.09187242384548       -0.00618096313451       -0.08706826993018
C            2.85285448019963       -0.52985690727914       -0.43263849474271
O            4.29238078272908        1.29681427647133       -0.45240580415331
C            5.49923924753418        1.91813956979887       -0.28932869302702
C            5.58361598979470        3.19789834587508       -0.82793626319068
C            6.74785449323798        3.93576852709612       -0.72330235488109
C            7.84982417978966        3.39907278418279       -0.08044844055633
C            7.77661622873586        2.12664677599163        0.45530855544355
C            6.60880376388909        1.38317086585225        0.35796895603924
S            6.60244335491135       -0.23092188375707        1.09156837941855
C            1.19425018703837       -3.53462550713379       -1.32562380066824
C            0.00194015252210       -4.10278346697127       -1.73046014871464
C           -1.19225352562906       -3.53328559116898       -1.33340700668946
C           -1.20457770802191       -2.39617914323729       -0.53117677015987
C           -2.51530991865845       -1.84061132548783       -0.14155348821688
C           -3.45581813460307       -2.64578840870180        0.49337060677398
C           -4.69066119933485       -2.13340285393549        0.83810715685401
C           -5.01975855949379       -0.81611694299769        0.55011177062285
C           -4.09513082757837       -0.00399806281625       -0.09897826707998
C           -2.85286114866808       -0.52563885029248       -0.43612346316054
O           -4.28888639874471        1.30330429580550       -0.45222993999558
C           -5.48599924014893        1.93652928444340       -0.26552587150593
C           -5.55204017287658        3.23437199384550       -0.76192025249875
C           -6.70525447022663        3.98546529930076       -0.63208864051872
C           -7.81410503812800        3.44480444018316       -0.00465452177440
C           -7.75892683587494        2.15483720907804        0.48979406410012
C           -6.60268610744670        1.39733869394489        0.36579982124899
S           -6.62211528152651       -0.24120500593077        1.04289343548323
H            0.87979429160399       -0.68274876052879        1.47386749312790
H            0.00182211339294        0.28843334358952        0.29904958518373
H           -0.89173585706643       -0.67781976521804        1.46657667246506
H            3.19443139963588       -3.66167876580081        0.77324284254739
H            5.39747194073089       -2.73692966974167        1.39809252401080
H            2.16693991020199        0.11130383357091       -0.96295267972719
H            4.71114874536169        3.59250500910932       -1.32445168513616
H            6.79062604496493        4.92777754775346       -1.14535133611599
H            8.76391059824756        3.96524748676046        0.00641247561173
H            8.62415462460001        1.69069780671551        0.96191090022111
H            2.13577543203176       -3.96334761944085       -1.63663225230430
H            0.00344053423206       -4.98492085801102       -2.35309251584681
H           -2.13201748121470       -3.96111618222597       -1.65087690566544
H           -3.21252855267334       -3.67005060406091        0.73092366960849
H           -5.42131172816755       -2.74941095113423        1.33982924086918
H           -2.16064957416481        0.12061523048542       -0.95179034933405
H           -4.67438875769082        3.63185722609650       -1.24688681197678
H           -6.73370877450844        4.99113894108729       -1.02178588163449
H           -8.71952532305280        4.02136620831562        0.10231603040906
H           -8.61224667019258        1.71531197536734        0.98343530149448
