55
 energy: -91.128432826523 gnorm: 0.000072008279 xtb: 6.7.1 (edcfbbe)
C           -0.00681096651299       -0.64975856739455        0.85525746660720
C           -0.01909948056476       -1.86762412375075       -0.02382576912339
C            1.18606141389766       -2.48072149313058       -0.35992634094105
C            2.48766672250599       -1.88505937930470        0.00045835371500
C            3.41337787520452       -2.61461635467128        0.74139806327206
C            4.64069296564301       -2.06721368111220        1.05603262429618
C            4.97810449113520       -0.78873791372042        0.63257796876417
C            4.06920727351850       -0.05317438939185       -0.12168703251246
C            2.83447881856237       -0.61019326868597       -0.42830145601797
O            4.27327925817558        1.20831016002585       -0.61092082905837
C            5.45078078350692        1.87597678592518       -0.43391776682597
C            5.51638210948410        3.12957249314513       -1.03474395283688
C            6.65238680879901        3.90904173375611       -0.92704478716156
C            7.74500067472353        3.44319461807000       -0.21551731759387
C            7.69048187014559        2.19898617593713        0.38395856005295
C            6.55140831084385        1.41200021221812        0.28133710200837
S            6.57224051196493       -0.16420933184966        1.09004818934023
C            1.20252141712229       -3.69950716968888       -1.03827739512565
C            0.01203346200414       -4.31549631039853       -1.38790848011463
C           -1.18539279547328       -3.71603118623586       -1.07543677385158
C           -1.23485728477743       -2.47724797832444       -0.41010577086574
C           -2.53254860597780       -1.89257346312130       -0.15458633525829
C           -3.64310653395090       -2.73728857635201        0.22133181494783
C           -4.87910269480924       -2.22297143477174        0.43646251985256
C           -5.13141124954792       -0.83867312367548        0.30917186636182
C           -4.03825067370707        0.01645853180541       -0.09687683385129
C           -2.78984121863638       -0.53005550791609       -0.30966656707735
O           -4.16157270918562        1.34521836151601       -0.30706791918818
C           -5.30442916038868        2.03146558472848       -0.11513834833572
C           -5.23882173075455        3.41461688563120       -0.31228342210496
C           -6.34551249885204        4.20794451848055       -0.14091600214753
C           -7.57760064971737        3.63190544843971        0.23174825667436
C           -7.67171050052902        2.27848587041411        0.41386701642928
C           -6.55122291867343        1.45283912025057        0.25855754240287
S           -6.75517908645007       -0.26546013918061        0.39848360534696
H            0.85110866354012       -0.68166426495449        1.52457797569330
H            0.06558510339186        0.26863562314493        0.27383932741892
H           -0.91587310217265       -0.60185306601777        1.45063633187950
H            3.16269607705381       -3.60709588483263        1.08315369136457
H            5.35918140944640       -2.62385082931123        1.63837816631038
H            2.15492871538808       -0.02564054726340       -1.02776233265418
H            4.65201650784449        3.46881056655445       -1.58354943682999
H            6.68119798843231        4.87846714278601       -1.39970924670310
H            8.63693880406662        4.04311079449000       -0.12533244443403
H            8.53099562875693        1.81776393186217        0.94360076942038
H            2.14993450220851       -4.15205045629045       -1.29026478787810
H            0.02570026689385       -5.26012572002910       -1.91175312914516
H           -2.11056628299064       -4.18054593826660       -1.38187230726102
H           -3.46433469656344       -3.78993440401823        0.37033985006787
H           -5.70369877841510       -2.85792649258601        0.72524419996314
H           -2.01523096948366        0.13749669162894       -0.65025903926417
H           -4.28602893836881        3.83205177698924       -0.59924735408469
H           -6.27624709991891        5.27304592982359       -0.29248543179922
H           -8.44336490066713        4.25991100814512        0.36806848935619
H           -8.60866534005386        1.81713868285031        0.68775878065878
