55
 energy: -91.128434481761 gnorm: 0.000099110792 xtb: 6.7.1 (edcfbbe)
C           -0.02214540433114       -0.64598336014533        0.81356959116237
C           -0.01183800724842       -1.85264108295952       -0.08075477927444
C            1.20341386653643       -2.44863192610405       -0.41118041339457
C            2.49502653558410       -1.84601992595629       -0.02680284173565
C            3.41679584050224       -2.57653489004766        0.71807314143873
C            4.63627160576811       -2.02378154380593        1.05318223716765
C            4.96959245671541       -0.73881622994800        0.64656552524495
C            4.06462719774719       -0.00193684471853       -0.11112878133974
C            2.83755624652306       -0.56433003191647       -0.43817930405379
O            4.26601941175539        1.26578022795672       -0.58515703465886
C            5.44503142899073        1.93044034691251       -0.40645125695779
C            5.51653200202362        3.18201828222033       -1.01076860623597
C            6.65450997270591        3.95836828722905       -0.90129172850774
C            7.74353325294809        3.49094656330635       -0.18530487255024
C            7.68321453689773        2.24861933870839        0.41752915607188
C            6.54173990599196        1.46526306448302        0.31401344528459
S            6.55309624583122       -0.10704758615267        1.13054061537317
C            1.24056394228220       -3.65690342848194       -1.10719061453698
C            0.06083111227578       -4.27948127330987       -1.48062425368966
C           -1.14631054361851       -3.69730929527531       -1.17280011359730
C           -1.21642138173413       -2.46961661535660       -0.48919655331218
C           -2.52386065189318       -1.90451083205783       -0.23802637361994
C           -3.62623134866907       -2.76931135864382        0.11571283548871
C           -4.87143582500909       -2.27495887455201        0.32447760596972
C           -5.14157604793355       -0.89287785112163        0.21205744110244
C           -4.05614036053435       -0.01721777086602       -0.17062076664884
C           -2.79791316010103       -0.54376767763731       -0.37723966617518
O           -4.19599915316084        1.31226132194952       -0.36452577477629
C           -5.35032742815229        1.97997199308911       -0.17604463660751
C           -5.30234123139035        3.36640320563601       -0.35458490418851
C           -6.42186830197604        4.14179815805587       -0.18481082824764
C           -7.64970484504546        3.54369625734445        0.16708430479913
C           -7.72654853818403        2.18688273116248        0.33069458375179
C           -6.59287982846607        1.37909582106664        0.17680180382017
S           -6.77381286190472       -0.34332750986200        0.29337468863724
H            0.82892855561964       -0.67692156733897        1.49160678222190
H            0.04650553175562        0.28012480086894        0.24400044565781
H           -0.93797101219335       -0.61512100504359        1.39963238057896
H            3.16911949105316       -3.57425983109502        1.04650085171684
H            5.35153043483963       -2.58117107958745        1.63877092100805
H            2.16085614564773        0.02155271611563       -1.03958603477297
H            4.65502244446297        3.52241429739522       -1.56333361882366
H            6.68778710171090        4.92646208848031       -1.37639544791659
H            8.63714633729611        4.08822337297510       -0.09415451954435
H            8.52070824151428        1.86641763901172        0.98101631197836
H            2.19559016030475       -4.09601880195232       -1.35418804526998
H            0.09044712538795       -5.21562366900463       -2.01883215279720
H           -2.06305005065746       -4.16662458347023       -1.49680034371001
H           -3.43409067262897       -3.82116725047088        0.25317592586692
H           -5.69003574296632       -2.92488838426615        0.59653637804207
H           -2.02892560261608        0.13885319653056       -0.70036198899423
H           -4.35261209082255        3.80092518004535       -0.62592483545484
H           -6.36617008082423        5.20967482171836       -0.32171638461230
H           -8.52562066463029        4.15772814054654        0.30217957975772
H           -8.65968226055036        1.70884929921218        0.58857119032949
