  55
        -91.22152282
 C         -0.0137218299       -0.6338495927        0.8243916342
 C         -0.0056269734       -1.8070402196       -0.1117171937
 C          1.2012725587       -2.3822769613       -0.5202608056
 C          2.5089991922       -1.8265180216       -0.1200443337
 C          3.4366188524       -2.6300934163        0.5356524233
 C          4.6715569543       -2.1226156780        0.8868367823
 C          5.0134878980       -0.8118148543        0.5848064991
 C          4.1016175442       -0.0011627685       -0.0839327800
 C          2.8587035873       -0.5177033334       -0.4272287152
 O          4.3101799596        1.2999659269       -0.4516035235
 C          5.5204186109        1.9148678311       -0.2884242025
 C          5.6105767392        3.1957237856       -0.8237474925
 C          6.7789789654        3.9271074753       -0.7197259291
 C          7.8795681875        3.3828247862       -0.0808468466
 C          7.8005168033        2.1095461386        0.4521093572
 C          6.6283925828        1.3727401472        0.3556907234
 S          6.6147087431       -0.2421805648        1.0870577331
 C          1.1984537726       -3.5240879061       -1.3158456838
 C          0.0090866908       -4.0979762042       -1.7207713932
 C         -1.1876666077       -3.5302477805       -1.3289956600
 C         -1.2050064170       -2.3881927885       -0.5340533853
 C         -2.5193893267       -1.8372747153       -0.1493021699
 C         -3.4515087850       -2.6423193287        0.4981351038
 C         -4.6910733350       -2.1371596840        0.8363206678
 C         -5.0338747722       -0.8279713917        0.5280170885
 C         -4.1172109544       -0.0160051428       -0.1326247917
 C         -2.8692884849       -0.5297256607       -0.4615329911
 O         -4.3246019442        1.2832287971       -0.5068073062
 C         -5.5137168458        1.9219315860       -0.2904308016
 C         -5.5799539558        3.2257386480       -0.7709642644
 C         -6.7251444549        3.9832596487       -0.6111235958
 C         -7.8253498289        3.4437180323        0.0326256839
 C         -7.7699052820        2.1479784514        0.5115333702
 C         -6.6223370901        1.3831399402        0.3553894405
 S         -6.6447902461       -0.2656033506        1.0066177021
 H          0.8688576483       -0.6485015536        1.4599966071
 H         -0.0132708168        0.3064907847        0.2747318624
 H         -0.9028164192       -0.6531882412        1.4507219516
 H          3.1830504920       -3.6493876665        0.7835093698
 H          5.3921031173       -2.7372389134        1.4045904475
 H          2.1764850173        0.1269387879       -0.9580891889
 H          4.7393579402        3.5962093501       -1.3177423598
 H          6.8260937148        4.9200592719       -1.1392670248
 H          8.7969772491        3.9437987429        0.0052114230
 H          8.6466121813        1.6678744434        0.9561404605
 H          2.1419593120       -3.9522685356       -1.6215383708
 H          0.0148119289       -4.9833658220       -2.3387407147
 H         -2.1255487554       -3.9631109581       -1.6451713799
 H         -3.1980119383       -3.6606316015        0.7500417081
 H         -5.4153766255       -2.7529226137        1.3474404324
 H         -2.1833788515        0.1158469598       -0.9864839578
 H         -4.7091216318        3.6222276788       -1.2688871486
 H         -6.7543873285        4.9928313341       -0.9905110138
 H         -8.7241075148        4.0256157393        0.1640228166
 H         -8.6167553719        1.7087615821        1.0165217482
