  92
       -131.59766655
 C         -7.5310597291        4.9411694626       -1.9411989913
 C         -7.6633598079        4.3112810636       -0.5470556120
 C         -9.1259600154        3.9049672194       -0.3453154969
 C         -7.3037028738        5.3466818692        0.5285501492
 C         -6.7088036585        3.1326212922       -0.4383359106
 C         -5.3341457992        3.3561097464       -0.5965333638
 C         -4.3941931051        2.3501773929       -0.4995446104
 C         -4.8392470779        1.0658163515       -0.2204151651
 C         -6.2225558008        0.8079846206       -0.0975108908
 C         -7.1456665431        1.8369272673       -0.1997539551
 C         -6.3549826704       -0.6094726808        0.1092301341
 C         -7.4500870158       -1.4354196565        0.3085575249
 C         -7.2587884423       -2.7949011363        0.5130623244
 C         -8.4138615026       -3.7620253221        0.7192004262
 C         -9.7781503524       -3.0682730305        0.6703948018
 C         -8.3784259353       -4.8236542366       -0.3899097832
 C         -8.2713000309       -4.4369589513        2.0910691665
 C         -5.9474319609       -3.2891137656        0.5385001267
 C         -4.8398580736       -2.4889010567        0.3440984768
 C         -5.0452523605       -1.1384611063        0.0999384056
 N         -4.1352952465       -0.1173853529       -0.0989958298
 C         -2.7563000274       -0.2543148787       -0.1656279358
 C         -1.9107857770        0.6428405199        0.5105979933
 C         -0.5533891778        0.5108392874        0.4428916678
 C          0.0681611184       -0.5252175025       -0.3102083927
 C          1.4793157264       -0.6547639987       -0.3862873199
 C          2.1136409804       -1.8641019588       -0.8095195226
 C          3.4625943115       -1.9875124947       -0.8605862601
 C          4.3271231486       -0.9121139434       -0.4931295633
 C          5.7132070518       -1.1290449504       -0.5669151827
 N          6.2509260245       -2.1841027597       -1.2056938656
 N          7.5457692651       -2.0735971783       -1.2038891743
 C          7.9015773531       -0.9752964463       -0.5511108759
 C          9.2748133956       -0.6123419584       -0.3238306753
 C          9.6986138872        0.1740789302        0.7538277328
 C         11.0385327010        0.4643272123        0.9149676814
 C         11.9796186086       -0.0215421851        0.0204776013
 C         11.5719202236       -0.8256797053       -1.0353020705
 C         10.2376067208       -1.1227354334       -1.2064142177
 N          6.7607306472       -0.3233738279       -0.1231551913
 C          6.6951775882        0.8690543607        0.6076433066
 C          6.0685377843        0.8920458258        1.8526753945
 C          6.0240663730        2.0693239214        2.5741231898
 C          6.6030700978        3.2227872352        2.0673286909
 C          7.2275119678        3.1979938352        0.8299906494
 C          7.2762470280        2.0279174898        0.0967757946
 C          3.7064402897        0.3160206831       -0.1266699394
 C          2.3540735036        0.4278053705       -0.0670162849
 C         -0.8112726201       -1.4212636874       -0.9809196647
 C         -2.1689048884       -1.2921869930       -0.9107038601
 H         -8.2246897620        5.7730536272       -2.0424141124
 H         -6.5259465846        5.3142993823       -2.1161979691
 H         -7.7597534165        4.2053375445       -2.7093966145
 H         -9.2795084989        3.4700443116        0.6396806417
 H         -9.7605623421        4.7850741066       -0.4255338066
 H         -9.4437464122        3.1937844214       -1.1042691536
 H         -7.9899760366        6.1893540362        0.4806593601
 H         -6.2935358210        5.7237336695        0.3960145633
 H         -7.3738060196        4.9002048090        1.5183660282
 H         -4.9819239154        4.3532873122       -0.8106393720
 H         -3.3475689481        2.5621126473       -0.6548614629
 H         -8.1920994757        1.6048464922       -0.0954594459
 H         -8.4344153561       -0.9986115709        0.3055227625
 H        -10.5643801734       -3.8057339519        0.8181602705
 H         -9.8669411629       -2.3226231023        1.4572213407
 H         -9.9419511053       -2.5929330821       -0.2940242840
 H         -9.2086676119       -5.5164376366       -0.2713528579
 H         -7.4539464747       -5.3937129728       -0.3651648454
 H         -8.4606028883       -4.3499678282       -1.3660902375
 H         -9.1049581943       -5.1145044529        2.2621603034
 H         -7.3502626789       -5.0087333368        2.1604076061
 H         -8.2675021813       -3.6877346722        2.8800666551
 H         -5.7818673681       -4.3392218287        0.7229241521
 H         -3.8464422208       -2.9067253543        0.3981505292
 H         -2.3513073383        1.4103783238        1.1301159763
 H          0.0595929064        1.1837566163        1.0210442582
 H          1.5045907521       -2.7186126134       -1.0591022461
 H          3.9285634992       -2.9104720021       -1.1668606255
 H          8.9874309453        0.5348868400        1.4799575704
 H         11.3522987207        1.0718420495        1.7513544506
 H         13.0246846947        0.2154478305        0.1512633602
 H         12.3022297669       -1.2192000323       -1.7267058637
 H          9.9040921724       -1.7477381587       -2.0196264340
 H          5.6215302415       -0.0125522203        2.2378736548
 H          5.5401574940        2.0846148059        3.5391143037
 H          6.5675525976        4.1392401929        2.6360678274
 H          7.6761622979        4.0953245402        0.4314145195
 H          7.7625053229        1.9971323473       -0.8669763900
 H          4.3157360097        1.1830137318        0.0719818593
 H          1.9296279374        1.3887247309        0.1807165596
 H         -0.3988945100       -2.1956412462       -1.6074696636
 H         -2.8067505339       -1.9574937424       -1.4738708983
