92
 energy: -131.651417219278 gnorm: 0.000040419164 xtb: 6.7.1 (edcfbbe)
C           -7.58623923127534        4.95355067087517       -1.90323514546879
C           -7.68275581287517        4.31720618119201       -0.50814911203106
C           -9.13951438401006        3.90759015288739       -0.27030600500985
C           -7.29805012500185        5.35063883425209        0.56192293128607
C           -6.72299903150915        3.14000795946847       -0.42939625170391
C           -5.35184627297954        3.36838342390348       -0.60933393892000
C           -4.40756240866052        2.36364796538319       -0.53752289541857
C           -4.84510460531202        1.07524543708342       -0.26191840886963
C           -6.22599072812881        0.81154571099575       -0.12265013442503
C           -7.15307559078566        1.83827044666592       -0.19955347026342
C           -6.35059548173432       -0.61076364697013        0.07188541332628
C           -7.43886819107332       -1.44158333845521        0.28395468637702
C           -7.23981701690857       -2.80370212708189        0.47673612956132
C           -8.38793024767895       -3.77422207570620        0.70622630712635
C           -9.75702042708487       -3.08815073364816        0.66832228880444
C           -8.36300238897579       -4.84987155362918       -0.39054376291748
C           -8.22090829430975       -4.43252350980738        2.08442502807601
C           -5.92646152702244       -3.29324701175500        0.47503338323590
C           -4.82494641410482       -2.48718297739937        0.26723395963610
C           -5.03904743213866       -1.13486501354158        0.03784209685493
N           -4.13493106762921       -0.10740144262583       -0.16257795695134
C           -2.75631617490690       -0.23500030779969       -0.23659602325733
C           -1.91286032324705        0.66257273072290        0.44393334687389
C           -0.55493931934289        0.53753477039694        0.37400377952644
C            0.07209748050732       -0.48954627751410       -0.38826717757751
C            1.48447447419587       -0.61481352966518       -0.46211850427695
C            2.12385252511946       -1.81604235061605       -0.90144921905146
C            3.47407052880127       -1.93954070847916       -0.94148357418436
C            4.33663312213312       -0.87378251957700       -0.54478957474937
C            5.72608142794991       -1.08777156440221       -0.60490442129342
N            6.27469261197436       -2.11360005305150       -1.27391924043575
N            7.57723014681296       -1.99990468063265       -1.24119944906364
C            7.91140876683363       -0.92980302328900       -0.53886372837195
C            9.27896222179257       -0.56973554728095       -0.26493623439705
C            9.67653375500576        0.12594235031698        0.88254037499683
C           11.01066886045757        0.41208169331339        1.09536489391143
C           11.97298693851312        0.01138298595020        0.18116285795898
C           11.59148486434436       -0.69922349963066       -0.94917971555749
C           10.26272330258486       -0.99159051475564       -1.17039668598931
N            6.76080182467695       -0.29556955726519       -0.10640127313842
C            6.67931686645843        0.86419449400594        0.67656122259956
C            6.02457428870083        0.83419164041144        1.90743394493072
C            5.96219048095997        1.97937587298531        2.67822154821544
C            6.55176188239603        3.15401478330020        2.23567929352094
C            7.20481452356752        3.18241360542448        1.01309694737516
C            7.27122300305103        2.04471290810160        0.23110817529615
C            3.71149153458473        0.34756301333561       -0.16624169529615
C            2.35796332633774        0.46139163569943       -0.11874661274643
C           -0.80491357648356       -1.38274833081290       -1.06762319987405
C           -2.16317454998896       -1.26311056301432       -0.99233845396855
H           -8.28427048395159        5.78425348040152       -1.98273526014763
H           -6.58646280416232        5.32990848490199       -2.10111468671211
H           -7.83295333991228        4.22128389944224       -2.66963971956417
H           -9.26546291182702        3.46206387648065        0.71394698187055
H           -9.77535537953549        4.78911962350162       -0.32278976261622
H           -9.47888066470981        3.20578324098708       -1.02872874693007
H           -7.98931027256517        6.19029098142614        0.53396198839399
H           -6.29352936513447        5.73323525790605        0.40449732511492
H           -7.34107874618958        4.90146886932159        1.55235360789517
H           -5.00533365565804        4.36822522815860       -0.81980653551438
H           -3.36423347105872        2.58009235656444       -0.70778502354691
H           -8.19760580643657        1.60358263849814       -0.08436385808766
H           -8.42502564266338       -1.00960195010835        0.30226588759494
H          -10.53722698038757       -3.83064873656540        0.82366837748506
H           -9.84433018029772       -2.34246526144893        1.45531317073481
H           -9.93192194568019       -2.61577561711649       -0.29568076780043
H           -9.19087602049420       -5.54212086788312       -0.25239319796892
H           -7.43808568951161       -5.41941461762397       -0.36979118355852
H           -8.45848377674750       -4.38941482346238       -1.37207214941675
H           -9.05032373514330       -5.10982105536274        2.27675173328128
H           -7.29720864884412       -5.00125269053284        2.14508529493475
H           -8.20632733761904       -3.67404750882100        2.86482270499157
H           -5.75327643027089       -4.34373775559123        0.64959689459924
H           -3.82961962673051       -2.90239797579828        0.30127233849702
H           -2.35451202161929        1.42292668066743        1.07125624883886
H            0.05501247038776        1.20902420926361        0.95693383758102
H            1.51916658597003       -2.66699275444674       -1.17392125635885
H            3.94079788002827       -2.85901224154760       -1.26030380443475
H            8.94635624000849        0.42003805879257        1.62118229741427
H           11.30232027359138        0.94812855722982        1.98709324236040
H           13.01358493330014        0.24354267978702        0.35193923315157
H           12.33762733464475       -1.02439915116965       -1.65956838971853
H            9.95186349421634       -1.54694692530700       -2.04219860877624
H            5.56932773531583       -0.08644094384091        2.24356960511205
H            5.45539003374591        1.95188123812832        3.63132739799882
H            6.50249942447639        4.04517377793252        2.84260563814488
H            7.66258992370739        4.09560249574395        0.66318625597209
H            7.77847800035727        2.05708365246350       -0.72288077540750
H            4.32029693384670        1.21098302277589        0.05406541756072
H            1.93483498715630        1.42003248805488        0.14041582506278
H           -0.38965124237160       -2.14830714886135       -1.70315245733695
H           -2.79624485616888       -1.92771958227465       -1.56139316242425
