83
 energy: -134.292989001135 gnorm: 0.000056237851 xtb: 6.7.1 (edcfbbe)
C            7.38139638821469        3.63988342544727        0.64819525177614
C            6.02160989309051        3.83051216904923        0.78396364812474
C            5.16141932523376        2.74343595504192        0.82108728442432
C            5.65069992010429        1.44630024665773        0.73411923072062
C            7.02968775822913        1.26495532514232        0.56390334151975
C            7.88282559470530        2.35159921932624        0.52887360791173
O            7.59462827294737        0.02266271566753        0.41251357225476
C            6.75081925426783       -1.06106013131453        0.41162308009769
C            7.33064748094624       -2.30365413317087        0.23927773643245
C            6.54927203305129       -3.45002538216691        0.25494004747733
C            5.18901712090105       -3.34172351018763        0.45810905738017
C            4.60176430374415       -2.09730238039963        0.63088531498673
C            5.36625370047501       -0.93794476749449        0.59264200797279
N            4.81165678976746        0.33176499552217        0.76815735454133
C            3.42946078509783        0.48231741922426        1.01079375902913
C            2.99370421665176        0.99499995213042        2.23159061561923
C            1.64473245022590        1.13570261427227        2.50296871409656
C            0.72589362282242        0.74467318772368        1.54155530192395
C            1.16965203011245        0.23151746575922        0.31286272009454
C            2.50956853711565        0.10378790218290        0.03273759961842
C           -0.00005388976203       -0.13884243834325       -0.56344716129400
C           -0.00026419777595        0.54954059395225       -1.90676796060912
C           -0.00046743084655        1.90081574965822       -2.17285427255350
C           -0.00064475238934        2.31204316053680       -3.49916510750264
C           -0.00061764706328        1.38444088814714       -4.52994705128935
C           -0.00041423770526        0.02418544686295       -4.26479538189299
C           -0.00023751474668       -0.39377850868976       -2.94432975136502
C           -0.00001197095590       -1.72531610473525       -2.35808668634088
C            0.00011275962512       -2.98209713009257       -2.94009271840502
C            0.00033989492049       -4.09543703785211       -2.11486382288356
C            0.00043984387356       -3.96049786149397       -0.73478040338488
C            0.00031459209463       -2.70394616470999       -0.14378833323466
C            0.00008837628399       -1.59615272681397       -0.96211861117092
C           -1.16966704424892        0.23127135701874        0.31309089847122
C           -2.50960823637064        0.10338023903949        0.03316499381541
C           -3.42940077535337        0.48180774939507        1.01135475247927
N           -4.81162209611744        0.33126811946871        0.76885400543836
C           -5.65062278769792        1.44583599657180        0.73476034481948
C           -5.16131500803907        2.74295560131113        0.82181761985374
C           -6.02147032826164        3.83005828103539        0.78464606228931
C           -7.38124877763620        3.63947490207400        0.64873771989274
C           -7.88270266449825        2.35120875937325        0.52932606087819
C           -7.02960044884875        1.26453841528936        0.56440757556607
O           -7.59456630549880        0.02226835740120        0.41292512658923
C           -6.75078109169708       -1.06147303397076        0.41198263000823
C           -7.33061660530829       -2.30403566950270        0.23943937395088
C           -6.54926274060159       -3.45042282875189        0.25504364435466
C           -5.18902463237459       -3.34217101016284        0.45835362319477
C           -4.60176362162463       -2.09778054452017        0.63132350817660
C           -5.36622924490260       -0.93840577774732        0.59313763664475
C           -2.99352162757343        0.99446401249525        2.23211824296321
C           -1.64452517922500        1.13533079948463        2.50329810843002
C           -0.72578340753109        0.74447724312176        1.54172275892036
H            8.05541928069143        4.48153058426830        0.62353844382880
H            5.61459710532464        4.82724142052740        0.85922022007786
H            4.09856894962086        2.90459144533980        0.91244566098437
H            8.93812359254128        2.16886606445001        0.40374148030596
H            8.39878334305143       -2.35334432671387        0.10003727807279
H            7.01084207372484       -4.41514203012169        0.11784530337010
H            4.56817584999336       -4.22400584016744        0.48764104583249
H            3.53902972002855       -2.03166638284259        0.80376919260422
H            3.72894526480256        1.27762887582845        2.97071377163962
H            1.31778478984989        1.53004184054083        3.45313156259742
H            2.85013821083593       -0.28286410493974       -0.91656061927842
H           -0.00048935651057        2.62277162515438       -1.36901279953769
H           -0.00080681259370        3.36695236461627       -3.73030031582848
H           -0.00075872979681        1.72822341722510       -5.55398729696087
H           -0.00039554961787       -0.69374474789663       -5.07134223163000
H            0.00003823974223       -3.09325966305166       -4.01411499734172
H            0.00044258717057       -5.08317702494294       -2.55206614471212
H            0.00061906744096       -4.84274334684447       -0.11185217553800
H            0.00039454063894       -2.59737921458920        0.93179268393637
H           -2.85027224140664       -0.28327046103270       -0.91610013438076
H           -4.09846999442008        2.90408300828232        0.91328265180354
H           -5.61443435473808        4.82677268227989        0.85997480808046
H           -8.05524423420010        4.48114280969973        0.62403959726126
H           -8.93799316171380        2.16851005440036        0.40408044471646
H           -8.39873999587283       -2.35369043228761        0.10009055829209
H           -7.01083796298065       -4.41551493205316        0.11779358812126
H           -4.56820507586284       -4.22446992725949        0.48784506567072
H           -3.53904382726276       -2.03217689142122        0.80431346926735
H           -3.72868753197347        1.27699033504646        2.97135510554523
H           -1.31748546633006        1.52969467528749        3.45341911237293
