83
 energy: -134.210144102498 gnorm: 0.000043133877 xtb: 6.7.1 (edcfbbe)
C            6.43105273422108        3.23891994097321        1.16512472249600
C            5.07659693673319        3.02865365990588        1.35323960690758
C            4.52848260362852        1.77168439232116        1.17308672999210
C            5.32458785023843        0.69587376737641        0.77961394164852
C            6.70499739590534        0.91267033914888        0.63523038891426
C            7.24666711647631        2.17333701508565        0.81941284712333
O            7.57745529080675       -0.09863859373488        0.33921212920785
C            7.05558367358814       -1.34792636642049        0.14514689768579
C            7.94474247305250       -2.35941702318856       -0.17401507455786
C            7.48098166814646       -3.64060005162698       -0.42793465876566
C            6.12129068190035       -3.89535747115800       -0.38928451688470
C            5.22717203864684       -2.89034135584653       -0.06907659304108
C            5.67776109843279       -1.60591523424525        0.23626586062599
N            4.80523791802537       -0.57945613694657        0.57841057863687
C            3.43097927485913       -0.82478089650640        0.73016262608965
C            2.98127531047390       -1.78245399011452        1.66813463347219
C            1.65153441082945       -2.01086389753039        1.87028740234719
C            0.69560880509501       -1.27915436355923        1.11584215358040
C            1.17107480213320       -0.32121212045071        0.15512998628944
C            2.49348372181433       -0.08923229354404       -0.03636347168694
C            0.00168579688216        0.34858920305582       -0.52681707986887
C            0.00652754580669        1.84835943775879       -0.35836381694061
C            0.01116783611030        2.57537197935200        0.81206387563207
C            0.01625777126963        3.96124017076245        0.73032660762899
C            0.01644859741060        4.59919971542374       -0.50127006622519
C            0.01188015743829        3.87135816763571       -1.68048626239583
C            0.00711723179379        2.48812113886545       -1.60628937655890
C            0.00324185779658        1.46892140764724       -2.64375458969365
C            0.00262108773240        1.57179133808372       -4.02515799689702
C           -0.00017592125068        0.40785786896286       -4.77699150051075
C           -0.00234971249814       -0.83614894722486       -4.16370596854673
C           -0.00212029154076       -0.94662618182606       -2.77972897590468
C            0.00065086756061        0.20808482785091       -2.02843884476835
C           -1.17119880776724       -0.31522114560782        0.15512463883932
C           -2.49261029827035       -0.07667974725084       -0.03622517629700
C           -3.43335362857314       -0.81085614657576        0.72723300950971
N           -4.80712654149173       -0.56178692055496        0.57486893633563
C           -5.32636506778048        0.71119598599672        0.79002424690333
C           -4.52910805205551        1.78389622493056        1.18914400897454
C           -5.07792017852538        3.03803778457697        1.38655507155606
C           -6.43390651832306        3.24813417307961        1.20989103903102
C           -7.25006380341461        2.18543295302849        0.85672052724101
C           -6.70775680584674        0.92772246502586        0.65501752544334
O           -7.58051475741127       -0.08117341869707        0.35144822305550
C           -7.05795364526652       -1.32723533540921        0.13894716780835
C           -7.94667836293067       -2.33558386263516       -0.19103283626111
C           -7.48196682143333       -3.61287195823775       -0.46237709828301
C           -6.12195533513044       -3.86680951651911       -0.42941872570949
C           -5.22825104432552       -2.86496575096291       -0.09836459603464
C           -5.67966191168150       -1.58484241606746        0.22318898074900
C           -2.98856758470715       -1.77381507543274        1.66199557570988
C           -1.65993360461772       -2.00690722075613        1.86606251787200
C           -0.70052310886362       -1.27643622307048        1.11497384389821
H            6.85901350416383        4.21932411881291        1.30186250562663
H            4.43491332375560        3.84428905950647        1.64854241176786
H            3.47594536381755        1.61787003776010        1.34623393743838
H            8.31071550355935        2.29478457515690        0.69456735359097
H            8.99458604344656       -2.11941215636568       -0.22605163362830
H            8.17966095259530       -4.42510116370223       -0.67158833364053
H            5.74744470734757       -4.88193824575552       -0.61567031891719
H            4.16802923603575       -3.09085709644274       -0.06447517855439
H            3.72114245728292       -2.30685399165238        2.25709591040209
H            1.31972212438346       -2.72282131184761        2.61041707026371
H            2.84271806186550        0.61816086888009       -0.77537246797972
H            0.01100496452935        2.07568507101796        1.77047068380956
H            0.02012655287032        4.55007807616891        1.63628489669272
H            0.02038954099802        5.67909037225642       -0.54062152429167
H            0.01231339828728        4.37399623999598       -2.63656262001028
H            0.00438883574279        2.53829254530713       -4.50759798202275
H           -0.00059828760124        0.46906797265530       -5.85586277820139
H           -0.00427230894945       -1.72970858967891       -4.77096068973234
H           -0.00382699641944       -1.91494129950808       -2.30054634910004
H           -2.83851857507087        0.63434002727734       -0.77332587725188
H           -3.47519582504713        1.62963088151498        1.35338632109411
H           -4.43560697674600        3.85147016619861        1.68652143810236
H           -6.86254464999873        4.22616176240613        1.36084675819415
H           -8.31499748307556        2.30677734600252        0.73952709930832
H           -8.99696702141889       -2.09633473534410       -0.23735357012814
H           -8.18030438755907       -4.39493668932063       -0.71471168246656
H           -5.74760264272550       -4.85012595733082       -0.66879245248692
H           -4.16883004424449       -3.06424724283266       -0.09753083254842
H           -3.73144237000013       -2.29874012976943        2.24670464990120
H           -1.33166132945674       -2.72259420364753        2.60416311481739
