  83
       -134.20756181
 C          6.4494652684        3.2461473602        1.1273961960
 C          5.0899808840        3.0483641636        1.3005920885
 C          4.5343945058        1.7937237478        1.1297003426
 C          5.3270512434        0.7063890355        0.7598589668
 C          6.7122621475        0.9111274810        0.6307346587
 C          7.2612072408        2.1704733590        0.8064734673
 O          7.5802985141       -0.1097990100        0.3602409168
 C          7.0526041343       -1.3558949579        0.1673385773
 C          7.9374971415       -2.3776271703       -0.1310628207
 C          7.4661533302       -3.6560189298       -0.3840722063
 C          6.1022358092       -3.8983459840       -0.3664516066
 C          5.2126027175       -2.8845340074       -0.0658054446
 C          5.6699566831       -1.6017056052        0.2404384921
 N          4.8022988856       -0.5674788367        0.5679074536
 C          3.4278500390       -0.8096423899        0.7243461897
 C          2.9825345688       -1.7621885663        1.6672273696
 C          1.6520918618       -1.9952591100        1.8699988954
 C          0.6965394862       -1.2725132919        1.1127973180
 C          1.1659776180       -0.3179056695        0.1508966220
 C          2.4890043319       -0.0827785752       -0.0448961696
 C         -0.0058231404        0.3483440062       -0.5302553897
 C         -0.0012588761        1.8477746810       -0.3560041685
 C         -0.0003684571        2.5700211509        0.8171555799
 C          0.0113754628        3.9563890507        0.7409136862
 C          0.0221937563        4.5989934786       -0.4884004899
 C          0.0212463456        3.8759256561       -1.6703758252
 C          0.0096065796        2.4921106855       -1.6018545707
 C          0.0089911621        1.4771840587       -2.6427960626
 C          0.0184115466        1.5849684279       -4.0241180226
 C          0.0182092392        0.4237959227       -4.7802103048
 C          0.0083045307       -0.8227251087       -4.1717431404
 C         -0.0017089612       -0.9382617533       -2.7879652392
 C         -0.0013497287        0.2136074146       -2.0324426270
 C         -1.1758934197       -0.3210560790        0.1501518388
 C         -2.4999073521       -0.0879040388       -0.0417387304
 C         -3.4360559206       -0.8242932489        0.7218265481
 N         -4.8105487277       -0.5744088252        0.5723706916
 C         -5.3250221960        0.6982448697        0.7957990541
 C         -4.5254616872        1.7630088602        1.2130736191
 C         -5.0696020330        3.0169788535        1.4198764517
 C         -6.4240598409        3.2360805776        1.2339190717
 C         -7.2426770945        2.1821167697        0.8621030438
 C         -6.7052085857        0.9234353044        0.6511972268
 O         -7.5788791327       -0.0776976936        0.3290691638
 C         -7.0632059536       -1.3273418993        0.1242843228
 C         -7.9559307399       -2.3315531875       -0.2087262257
 C         -7.4973681109       -3.6123337041       -0.4729315292
 C         -6.1380895846       -3.8748559133       -0.4297707785
 C         -5.2403730684       -2.8781167127       -0.0962280064
 C         -5.6856407946       -1.5933116512        0.2181012345
 C         -2.9887014811       -1.7835992917        1.6559568493
 C         -1.6570905661       -2.0109904035        1.8593281606
 C         -0.7040701201       -1.2772011175        1.1096771335
 H          6.8826503450        4.2250668883        1.2570618219
 H          4.4511089636        3.8728891540        1.5766992760
 H          3.4785139599        1.6506162443        1.2919226305
 H          8.3278840305        2.2819174282        0.6952106063
 H          8.9902605699       -2.1475723833       -0.1679610189
 H          8.1610137018       -4.4486856590       -0.6115049417
 H          5.7237403449       -4.8827296466       -0.5940531873
 H          4.1515771698       -3.0752419765       -0.0768418007
 H          3.7239124814       -2.2815618616        2.2587179329
 H          1.3239387987       -2.7055377826        2.6133648179
 H          2.8335537017        0.6214130215       -0.7890702220
 H         -0.0077175585        2.0666612826        1.7737153883
 H          0.0132504533        4.5415964469        1.6491549810
 H          0.0319651606        5.6790361114       -0.5235082128
 H          0.0304045440        4.3822363692       -2.6245069836
 H          0.0262717143        2.5533720931       -4.5028651438
 H          0.0268231733        0.4890062668       -5.8588405789
 H          0.0091854394       -1.7140588472       -4.7822545063
 H         -0.0087810494       -1.9085195405       -2.3125604966
 H         -2.8484218290        0.6232198109       -0.7775179794
 H         -3.4736674683        1.6013374059        1.3837783693
 H         -4.4262996734        3.8238456385        1.7348889740
 H         -6.8485359845        4.2146599119        1.3926339043
 H         -8.3059151252        2.3106579143        0.7367394133
 H         -9.0043643579       -2.0857960349       -0.2633206622
 H         -8.1985139034       -4.3910419858       -0.7275448432
 H         -5.7689926961       -4.8614931083       -0.6631635258
 H         -4.1822723199       -3.0841295222       -0.0878766009
 H         -3.7284642566       -2.3116261435        2.2417975678
 H         -1.3263134157       -2.7258446091        2.5971964110
