83
 energy: -134.209972610031 gnorm: 0.000056709782 xtb: 6.7.1 (edcfbbe)
C            7.40847267759585        2.93186908656128        2.27619725665699
C            6.04458353014528        3.05390286472613        2.47691565345770
C            5.17471801271735        2.09507870555288        1.99119588868137
C            5.65480961697638        0.98056912658486        1.30331456238662
C            7.03645662726123        0.89197401096120        1.06552099396980
C            7.90113796278167        1.85455173342068        1.55664186326251
O            7.58507096145284       -0.12066047561103        0.32758732288262
C            6.73574338688274       -1.06446283851397       -0.18208783357043
C            7.30446942867089       -2.07917233501796       -0.93279676963613
C            6.51289794792678       -3.09376725393830       -1.44678890013770
C            5.15487219565506       -3.10060430274557       -1.18246755915114
C            4.57977521981019       -2.09188887494440       -0.43100741973403
C            5.35200684649314       -1.03870636601698        0.05891922442734
N            4.80647389929410       -0.00480288603761        0.81353137867981
C            3.43003393012555        0.02787623721066        1.09346228275266
C            2.98065295512362        0.00957726407567        2.43384147161054
C            1.65091132352605       -0.01897035394027        2.73774670576895
C            0.69488000139699       -0.01236604980404        1.68673972856613
C            1.17005553173824        0.02582333790993        0.33016056468003
C            2.49310219966586        0.03906291050896        0.03144123964799
C            0.00101210492522        0.01110293485898       -0.62564271119415
C           -0.06744527871919        1.19524499360818       -1.55803697062998
C           -0.17127310990544        2.53087358679461       -1.23630587765106
C           -0.25054058778318        3.45622628511029       -2.26818909568685
C           -0.22879747990293        3.04572722049674       -3.59293024939866
C           -0.12665842463901        1.70330017286481       -3.92065680747903
C           -0.04640618712605        0.77447262711866       -2.89598525392021
C            0.05659754608243       -0.67590109501342       -2.92004900930358
C            0.14059570368244       -1.56993312355562       -3.97492235943678
C            0.24162610378740       -2.92257817033511       -3.69192315552595
C            0.25860903875097       -3.37716138341424       -2.38158563494167
C            0.17558128037304       -2.48684062331304       -1.31961316140275
C            0.07284566244473       -1.14118632723856       -1.59684570812149
C           -1.17139363303133       -0.03505012340981        0.32502679171605
C           -2.49337378685118       -0.03831002025592        0.02136674434301
C           -3.43408406216971       -0.06125194791652        1.07986880876644
N           -4.80948160965886       -0.01859937285939        0.79624246500096
C           -5.35161304368959        1.03944591061235        0.07327940100219
C           -4.57698102854669        2.10734383922176       -0.37962665643548
C           -5.14867160464829        3.14003041491665       -1.10049552114350
C           -6.50568231581890        3.14256433550143       -1.37006200111066
C           -7.29974834237241        2.11254707101544       -0.89184149012687
C           -6.73442346271406        1.07389822896662       -0.17192995205510
O           -7.58620993109448        0.11486597596383        0.30408582250480
C           -7.04099352518630       -0.92116303072340        1.01141906340731
C           -7.90814678389329       -1.89814970738641        1.46855607703102
C           -7.41887283862594       -2.99824375646963        2.15520782135222
C           -6.05579770591288       -3.12778991695218        2.35675678371516
C           -5.18348389367646       -2.15473137242375        1.90492103816834
C           -5.66027489381892       -1.01842785008536        1.25123715718693
C           -2.98943694415313       -0.08657888806557        2.42172168035787
C           -1.66077266528917       -0.06837810854321        2.73108159727159
C           -0.70102120755923       -0.04105397155932        1.68380379141114
H            8.08821645494877        3.67634506480202        2.65917939601178
H            5.64855936878923        3.90441091341038        3.00997167431789
H            4.11181197059915        2.20832873737286        2.13107992049392
H            8.95499901125339        1.74478410322818        1.35708533727170
H            8.37022094072774       -2.05824898374213       -1.09491993967388
H            6.96213304131416       -3.87872968351622       -2.03421965392853
H            4.53150806364148       -3.89821603278619       -1.55585404966160
H            3.52471212490465       -2.12268738435463       -0.21337416093833
H            3.72175826472498       -0.02286171103052        3.22061922594845
H            1.32015128868966       -0.06430281096964        3.76401371144311
H            2.84198423656970        0.08390523378942       -0.99071239475181
H           -0.19059334031827        2.84834047353387       -0.20350300746044
H           -0.33108398228598        4.50863323403344       -2.03723133731053
H           -0.29376789830848        3.78385131196334       -4.37948580802248
H           -0.11342303778932        1.38908366326798       -4.95405198197881
H            0.13106663001654       -1.22131525940829       -4.99726745365241
H            0.30948145023628       -3.63398007502517       -4.50249214906679
H            0.33838617947795       -4.43670966164784       -2.18567593452963
H            0.19120814320924       -2.83868770303606       -0.29794949861226
H           -2.83863027128219       -0.04985014196732       -1.00293546416925
H           -3.52274060997230        2.13049601798181       -0.15711682921367
H           -4.52345476940670        3.94880398592560       -1.44571470937250
H           -6.95225502519770        3.94625711211029       -1.93371466974525
H           -8.36489386758754        2.09755560546763       -1.05853786423132
H           -8.96120017428599       -1.78118220080378        1.26882482444744
H           -8.10054190000457       -3.75393704297967        2.51189684193529
H           -5.66231842779175       -3.99518937572583        2.86384715256374
H           -4.12117101879071       -2.27332558619998        2.04487181156065
H           -3.73329876870709       -0.07934434261602        3.20653161793401
H           -1.33364401661173       -0.05648023147689        3.75944401762702
