96
 energy: -146.659023451347 gnorm: 0.000190954048 xtb: 6.7.1 (edcfbbe)
C           -2.38126043276564        1.53473624020803        3.43339040213949
C           -3.32929067114399        2.22613546110251        2.69998051648336
C           -3.97963695569574        1.61016745597053        1.64594876906846
C           -3.69047761117162        0.29362615132058        1.30749635059650
C           -4.34243113748165       -0.35236619751907        0.08193606862809
C           -5.67568924940081       -0.99016033119033        0.39801625729028
C           -6.20818901124244       -0.99723729854470        1.67888641932335
C           -7.43195287540352       -1.59696579491573        1.92719827557737
C           -8.13766861817213       -2.19708585287232        0.90019869770585
C           -7.61237449235190       -2.19675784728571       -0.38186312150623
C           -6.39152093256246       -1.59893405475008       -0.63024189805154
C           -4.46018211132954        0.73270688621877       -0.97714482232180
C           -5.64489161024793        1.30459077482973       -1.40567649212208
C           -5.62903010185403        2.34305419800696       -2.32383959577758
C           -4.42597756206687        2.81804153839021       -2.82075210463930
C           -3.23291510040066        2.25945540307565       -2.40186489146970
C           -3.24658409593448        1.22441456648531       -1.47421610406770
N           -2.06800551006237        0.59617114632083       -1.05045373637010
C           -1.01112887764872        1.27099632149591       -0.48812753244810
C           -1.04861173243848        2.63415250177079       -0.24836349570989
N           -0.00295563071794        3.25451828618532        0.31656714814323
C            1.03465295978552        2.51875174379099        0.73861814508077
C            0.98459466542866        1.13580421171797        0.68527492808607
N            2.03280242672488        0.35078572284286        1.10039235286268
C            2.13476550185805       -0.99984686591516        0.71805677865567
C            1.10707989710394       -1.89922199224326        0.96647726863277
C            1.28300412479265       -3.23360278468329        0.65388496528440
C            2.47521486324816       -3.66955258167070        0.09796566132563
C            3.49986038838889       -2.77039223851599       -0.15271900298368
C            3.34155195443395       -1.43182554877368        0.16053357112901
C            4.35248161226434       -0.33457579785443       -0.12712285523224
C            3.75043705672048        0.57297341690809       -1.20313761010683
C            4.07137799478259        1.92479538134785       -1.23958628558201
C            3.47005884632135        2.76764380696379       -2.15670620554693
C            2.53959030949181        2.27173988330170       -3.05289853721945
C            2.23832337301379        0.92141537087865       -3.04495924674261
C            2.84370373968638        0.07680895202316       -2.13179294157937
C            5.69898030598882       -0.89495331350468       -0.52418008421662
C            6.37769262212710       -1.71612224664175        0.37325728705029
C            7.60907562343964       -2.25160782822340        0.04689544275837
C            8.18222857537288       -1.97612146496503       -1.18403849034111
C            7.51326672775586       -1.16443072078250       -2.08210539919566
C            6.27896694216183       -0.62706482075463       -1.75549085127925
C            4.42550400148807        0.48962525632462        1.14900394042546
C            5.59062579478207        0.94790779521457        1.73780279193344
C            5.53568465450317        1.75935244199175        2.86034717822803
C            4.31244447854628        2.11966519947063        3.40274950598169
C            3.13867097250162        1.67277141502636        2.82584154063907
C            3.19170179565230        0.86605032400541        1.69482700199814
N           -0.01488533854620        0.51360592338772        0.02180900318564
C           -2.16178202800832       -0.80619125111348       -0.97099002881698
C           -1.14555320022319       -1.62356807360795       -1.44618974696345
C           -1.31431795137634       -2.99489473828258       -1.42893287074779
C           -2.48797925182011       -3.54809423516055       -0.94213198391928
C           -3.50054828119083       -2.73126916030028       -0.46370725555881
C           -3.34901479327368       -1.35588616287899       -0.47975678886677
C           -2.76632155809018       -0.40520723542499        2.07476254999003
C           -2.11209606658655        0.21303463071528        3.12513506036807
H           -1.85920774326022        2.02238451132776        4.24328718075842
H           -3.55722002027293        3.25399344581359        2.94112155628084
H           -4.71267749021742        2.16233974794002        1.07525725053151
H           -5.66696766184638       -0.53310808416795        2.49000689096564
H           -7.83349615813753       -1.59397369602088        2.93006107436020
H           -9.09163429132626       -2.66410417552898        1.09582830013526
H           -8.15542802104786       -2.66452515561811       -1.19022539855829
H           -5.98269491282679       -1.60180455959152       -1.63105631437882
H           -6.58606380207082        0.95346583793103       -1.00930127859827
H           -6.55952163893064        2.78525901500568       -2.64605224277684
H           -4.41702188244911        3.62436056362289       -3.53852252067363
H           -2.28973528670161        2.61095400106731       -2.79169771579135
H           -1.94109539353206        3.21367421914368       -0.41555707602667
H            1.93158394922330        3.04069346448046        1.02771096023068
H            0.18175286181504       -1.54456296367895        1.38999072322422
H            0.48639357430502       -3.93580854895088        0.84823030856368
H            2.60788835710888       -4.71184889257380       -0.15101495653614
H            4.41737218541104       -3.11291649846876       -0.60779898319799
H            4.79124393992891        2.32407281120543       -0.53936360002916
H            3.72265839761514        3.81777607594767       -2.16326700652253
H            2.05589043122196        2.93359393548307       -3.75588998370625
H            1.52287622920947        0.52156302618558       -3.74922791160460
H            2.59951153999254       -0.97549543191748       -2.13627951575364
H            5.93139844070491       -1.93458147343724        1.33339108006035
H            8.12295623453609       -2.88632617597782        0.75416098776317
H            9.14459152952830       -2.39389268276903       -1.44046874816232
H            7.95196625738812       -0.94604269705447       -3.04482837837894
H            5.76681927755724        0.00402145689451       -2.46658174467263
H            6.54769264837522        0.68776843185033        1.31050225736515
H            6.45141114233229        2.11539019386983        3.30738122616123
H            4.27290111949980        2.74878372824262        4.27914414182673
H            2.17964701212332        1.93527880503356        3.24600397244689
H           -0.23420851553949       -1.17981760074731       -1.81248246726447
H           -0.52690222068515       -3.63350791197245       -1.79988929840397
H           -2.61503426598273       -4.62026751074571       -0.92452131863867
H           -4.40229006713240       -3.17006240751780       -0.06294146369909
H           -2.54720470805725       -1.43764313050719        1.84413956434574
H           -1.38336728356364       -0.34023292993880        3.70019209088864
