96
 energy: -146.661516411575 gnorm: 0.000089063481 xtb: 6.7.1 (edcfbbe)
C           -7.93534467152423       -1.62799871396113       -0.55635064849839
C           -7.63101246739645       -0.30635276945177       -0.27320904670340
C           -6.31550500179954        0.08029339860436       -0.10425177412855
C           -5.28242483923219       -0.84735110192781       -0.20640681514272
C           -3.85572094223703       -0.35554064356599       -0.04202686092458
C           -2.85058997203443       -1.50718904190439        0.06530718536167
C           -1.83687422258035       -1.69503209075817       -0.86358551280951
C           -0.93172714327809       -2.73330793289061       -0.71596125492544
C           -1.01747729567149       -3.59223785408046        0.36413351368942
C           -2.02439379736605       -3.41094252810501        1.29740670319398
C           -2.93084909791832       -2.37861103603748        1.14801089216824
C           -3.50400387536301        0.53561154305803       -1.21170502415777
C           -4.06929059624190        0.35326671798739       -2.46416595120636
C           -3.67761792237986        1.12734169671841       -3.54286856499237
C           -2.71008750243328        2.10362525666065       -3.37141516342960
C           -2.14186497997742        2.30477965100592       -2.13050274015509
C           -2.52273414934368        1.51730640383818       -1.04227858094036
N           -1.94415052131345        1.72950953823708        0.20474136759080
C           -0.69889991527646        2.35094509566396        0.24156305155515
C           -0.46191762704489        3.55390192300139        0.87618891366191
N            0.75887854884225        4.07124672415214        0.94075616452701
C            1.77653169971435        3.40604079354916        0.34350068827202
C            1.51384817298037        2.30656782803332       -0.45196125002552
N            2.50455826075720        1.58123007139186       -1.07769614691874
C            3.86885961980102        1.73739639933749       -0.77716912977582
C            4.53844270830352        2.92695652551643       -1.03129466294808
C            5.88785346587022        3.02763004026450       -0.74359968014488
C            6.56746611449940        1.94351249081605       -0.21503006098064
C            5.90451899386869        0.74955139884220        0.02016954460272
C            4.55496763857658        0.63126652226611       -0.26484777279228
C            3.71137777664943       -0.60540115250804        0.00022724048825
C            2.74815957071259       -0.26909003943515        1.14310131258302
C            1.45655626899527       -0.78282242718371        1.15639254429572
C            0.56533515203434       -0.42719065500131        2.15233253491698
C            0.95515291495122        0.44081718694983        3.15683326717871
C            2.24712856957933        0.93693339448875        3.16676474298400
C            3.13790035928514        0.58397939257299        2.16853131308737
C            4.56069981504709       -1.82067394207573        0.29618495770977
C            5.49474851136028       -2.23594546775954       -0.65019817251737
C            6.28882436410823       -3.34312821979528       -0.41934415190508
C            6.16094833267169       -4.05522784302388        0.76225662898093
C            5.23341582810425       -3.65149128951085        1.70548197023762
C            4.43715957591310       -2.54159475300276        1.47486841404921
C            2.86420653803799       -0.79390917105290       -1.24781630946166
C            2.65232393032906       -1.99509478140226       -1.90158149526495
C            1.77002372541092       -2.05847434928753       -2.96914076932215
C            1.07517452218407       -0.92885403541015       -3.37076308109152
C            1.28406279500076        0.27942675388949       -2.73272022977280
C            2.18839733458840        0.34745380496967       -1.68270656768902
N            0.27825545794381        1.78247405873664       -0.52615418907548
C           -2.61973266913622        1.33525617893615        1.35401734177910
C           -2.27618887698765        1.82897409578076        2.61424335883581
C           -3.02487160168862        1.50282614650024        3.72670114232642
C           -4.13753161033584        0.68876845397849        3.60415565097730
C           -4.44284445825212        0.13910450067836        2.37136827509449
C           -3.68294631051686        0.42569590548103        1.24779971856466
C           -5.59450115383127       -2.16523316443477       -0.50751540361461
C           -6.91376037201722       -2.55243966625452       -0.67742182093194
H           -8.96311469293170       -1.93281226235655       -0.68713461682114
H           -8.42122029119123        0.42492367372742       -0.18590738024787
H           -6.07974851741060        1.11293466200712        0.11162469176165
H           -1.73884089027096       -1.03572246699252       -1.71227800065800
H           -0.15358678913122       -2.86281178722452       -1.45358978362803
H           -0.30446674705411       -4.39512551757097        0.48071072595897
H           -2.10390328412052       -4.07409905988070        2.14658862305465
H           -3.71020097900396       -2.24805048819549        1.88379655795429
H           -4.81569611187358       -0.41510354732857       -2.59981599423143
H           -4.12465580979148        0.96616100684805       -4.51190539636964
H           -2.40233151957826        2.71627522460564       -4.20572346501295
H           -1.40571223398644        3.08075774137911       -1.99085923957042
H           -1.27418094684602        4.13537380248359        1.28435580987794
H            2.77682105048214        3.72004936710799        0.58363478935568
H            4.00242657963389        3.75967385677565       -1.46036802187492
H            6.40888323739621        3.95347402395897       -0.93537372454557
H            7.61844178692894        2.02527260961053        0.01775243076935
H            6.44003186932410       -0.08725835325351        0.44337134441347
H            1.13231709468145       -1.45838847945550        0.37988961963517
H           -0.43865133762844       -0.82647236358824        2.13465776257523
H            0.25596237379951        0.72454649615056        3.92944946632868
H            2.56390887263294        1.60987072152330        3.95020506391123
H            4.14254025308764        0.98214635243015        2.18541675312602
H            5.59566006558317       -1.68287485261580       -1.57372999907712
H            7.00915641390872       -3.65175725687315       -1.16301443925567
H            6.78123773212963       -4.92039459510381        0.94442019995859
H            5.12599656513921       -4.20201302394815        2.62874693960924
H            3.71573569560357       -2.23776472462722        2.21875064665418
H            3.15803895439147       -2.88889546054829       -1.56715993819941
H            1.61487119168053       -2.99868035352089       -3.47835574563819
H            0.37253180173058       -0.98786472287135       -4.18871390314369
H            0.75088528162902        1.16595598372503       -3.03666305440183
H           -1.40745788292625        2.45685278572775        2.72349362570424
H           -2.74212220486386        1.89611282578301        4.69177044800688
H           -4.74462449674007        0.45569593722703        4.46537041859293
H           -5.28404149177690       -0.53304325737686        2.28368735726850
H           -4.80682282924150       -2.89611992087937       -0.61514127521989
H           -7.14092227136183       -3.58304780685940       -0.90848910047404
