  109
       -168.11775316
 C         -7.4393457937       -6.7155583901        1.5790548331
 C         -8.0462537119       -6.0575656167        0.5218460796
 C         -7.5434160976       -4.8559532998        0.0624702143
 C         -6.4213782475       -4.2870327373        0.6650475733
 N         -5.9050421539       -3.0702972573        0.2114063565
 C         -6.7531173167       -2.0757500837       -0.2832726876
 C         -8.0014966319       -1.8479220813        0.2953156852
 C         -8.8339686408       -0.8693721345       -0.2119754271
 C         -8.4376459695       -0.1003978051       -1.2941733818
 C         -7.1967448538       -0.3196869718       -1.8690256824
 C         -6.3596378171       -1.2987615730       -1.3723756386
 C         -4.5209208523       -2.8623303724        0.2074511096
 C         -3.6540126229       -3.8867857552       -0.1731370327
 C         -2.2923001202       -3.6757359202       -0.1911002402
 C         -1.7510017790       -2.4487339358        0.1900375826
 C         -0.2977678473       -2.2414727742        0.1555609772
 C          0.4516579086       -2.6927648758       -0.9307011864
 C          1.8148036315       -2.4996340304       -0.9751145225
 C          2.4791780776       -1.8584954571        0.0723299392
 C          3.9185208970       -1.6921776116       -0.0530745074
 N          4.6770084712       -2.5700484627       -0.6632078306
 C          5.9429207322       -2.0826703391       -0.6000317049
 C          7.1385858457       -2.6911217898       -1.0738539959
 C          7.1198357490       -3.9504123109       -1.6824137076
 C          8.2893701176       -4.5395471290       -2.0930848987
 C          9.4974315685       -3.8741954464       -1.8935798604
 C          9.5267110275       -2.6321452612       -1.3036051482
 C          8.3518189572       -1.9915353230       -0.8813722125
 C          8.3448846043       -0.6623824055       -0.2950177749
 C          9.5170693745        0.0993769174       -0.1883972646
 C          9.5125140521        1.3792393626        0.3135017442
 C          8.3173328306        1.9666459882        0.7159572939
 C          7.1479368202        1.2515651990        0.6372089087
 C          7.1364325804       -0.0673879954        0.1609980075
 C          5.9533301114       -0.8520323529        0.0550183191
 N          4.6459031751       -0.6181198223        0.4139355815
 C          4.1191630388        0.4381525405        1.1793413467
 C          4.5989173249        0.6703044238        2.4650220559
 C          4.0319225304        1.6758088669        3.2266939958
 C          2.9773938104        2.4201728185        2.7302838041
 C          2.4776306573        2.1816600300        1.4509809840
 C          1.3076882128        2.9153750063        0.9518217582
 C          1.1700029563        4.2871259753        1.2038125013
 C          0.0596976469        4.9967737908        0.7970493617
 C         -0.9468879209        4.3077531905        0.1342791023
 C         -0.8077873606        2.9313557424       -0.1631333903
 C          0.3184948598        2.2377419235        0.2495190261
 C         -1.9878942285        2.5503716796       -0.8872160662
 C         -2.4232340290        1.3544499256       -1.4426426899
 C         -3.6570438519        1.3260787504       -2.0602493840
 C         -4.4568553866        2.4650497392       -2.1188302657
 C         -4.0382440253        3.6696594837       -1.5875275376
 C         -2.7882331514        3.7118230443       -0.9870901734
 N         -2.1445489011        4.7657776712       -0.3692549585
 C         -2.6202392118        6.0826400101       -0.2795651333
 C         -2.6485971530        6.7336550053        0.9501794845
 C         -3.1062582924        8.0358099055        1.0313079559
 C         -3.5479852526        8.6930458002       -0.1049095278
 C         -3.5269930609        8.0439698323       -1.3282429916
 C         -3.0608627534        6.7456419344       -1.4211054742
 C          3.0755039069        1.1972289664        0.6708093222
 C          1.7387067459       -1.4406598767        1.1777129756
 C          0.3689943868       -1.6151414217        1.2061960166
 C         -2.6199128964       -1.4354449212        0.5902326129
 C         -3.9854989324       -1.6309195151        0.5847413232
 C         -5.8148985674       -4.9537268603        1.7301720836
 C         -6.3207389712       -6.1585424462        2.1768937320
 H         -7.8347330985       -7.6548808247        1.9340194702
 H         -8.9148892798       -6.4870666072        0.0446677927
 H         -8.0132176938       -4.3514411859       -0.7689939044
 H         -8.3101151755       -2.4416044919        1.1432279704
 H         -9.7983569048       -0.7027493496        0.2449297766
 H         -9.0923711570        0.6621819633       -1.6875881979
 H         -6.8836652635        0.2659359930       -2.7206435917
 H         -5.3978166936       -1.4814121023       -1.8274785636
 H         -4.0601619655       -4.8454589308       -0.4607166760
 H         -1.6330986403       -4.4778679144       -0.4884931094
 H         -0.0486261999       -3.1783568433       -1.7557919400
 H          2.3943951245       -2.8397106531       -1.8188903229
 H          6.1645527879       -4.4364997853       -1.8053590214
 H          8.2797168332       -5.5126447998       -2.5613804603
 H         10.4218755592       -4.3380527152       -2.2061365160
 H         10.4852514767       -2.1575148403       -1.1662352634
 H         10.4564548021       -0.3138229048       -0.5179527931
 H         10.4359297190        1.9355107261        0.3793626319
 H          8.3072167375        2.9824146319        1.0827801506
 H          6.2210291242        1.7189519331        0.9283070890
 H          5.4059447130        0.0665234386        2.8524850620
 H          4.4030148721        1.8636303558        4.2231570027
 H          2.5152346786        3.1740177463        3.3495933900
 H          1.9681546117        4.8061698499        1.7136022965
 H         -0.0165490101        6.0572999182        0.9834681925
 H          0.4107911323        1.1801681364        0.0522655298
 H         -1.8088089785        0.4687605973       -1.3901486646
 H         -4.0128187387        0.4072553860       -2.4997397229
 H         -5.4262340024        2.4082730842       -2.5907602119
 H         -4.6683378875        4.5451463572       -1.6310243576
 H         -2.3242935778        6.2096476026        1.8370784121
 H         -3.1252865972        8.5362606524        1.9880152258
 H         -3.9071134245        9.7085826976       -0.0372603453
 H         -3.8661425504        8.5540785292       -2.2175085875
 H         -3.0209362704        6.2433124628       -2.3762882803
 H          2.7241558054        1.0111228424       -0.3326721536
 H          2.2292946241       -0.9975135408        2.0303707015
 H         -0.1911627520       -1.2874199663        2.0700655379
 H         -2.2231012519       -0.4780351847        0.8935746766
 H         -4.6490325319       -0.8297163962        0.8750243546
 H         -4.9490905180       -4.5161653865        2.2052465426
 H         -5.8420185019       -6.6619310300        3.0039485715
