51
 energy: -78.978319154109 gnorm: 0.000104382020 xtb: 6.7.1 (edcfbbe)
C           -4.67677443928545        0.87805066234975       -2.54565827813483
C           -3.48870674523966        0.53142664286767       -3.17319712846053
C           -2.36371050616152        0.19705496384393       -2.43126465026444
C           -2.45196022788665        0.21889593951410       -1.05562608214145
C           -3.65103445304980        0.57074073634192       -0.41646243908009
C           -4.77056191505027        0.90153277529121       -1.16317650997161
C           -3.44218224598150        0.50765454815409        1.02148453827548
C           -4.29741550020669        0.76384792860054        2.08131794468523
C           -3.81503033175767        0.62168208013832        3.37274213909307
C           -2.50403183242520        0.23107711949695        3.60455010656561
C           -1.64141515251730       -0.02740217981184        2.54745769193520
C           -2.11747052828544        0.11241423977041        1.26166638178105
C           -1.38357867132531       -0.10870871081957       -0.04224274035922
C           -0.83127869115573       -1.50548319218450       -0.18521844855259
C           -1.51759198769480       -2.68399052850300       -0.21669800060449
C           -0.80766781826758       -3.88030216493714       -0.38510080598388
C            0.58169116585508       -3.85552545613393       -0.56117560623062
C            1.28942384678083       -2.68246179199703       -0.53248668716718
C            0.60372432277802       -1.46095957462802       -0.29305237049106
C            1.03663854866420       -0.14121996928963       -0.17635849517150
C           -0.13334606678310        0.72871767893369       -0.15579778871799
C           -0.06072083962226        2.07352084300169       -0.30197395825042
C            1.20986200185199        2.70290688056766       -0.43220963108738
C            2.34130222682656        1.90810485797784       -0.35247047980971
N            3.65120978551546        2.32879960028339       -0.36464634148081
C            4.47479819386453        1.27180950520815       -0.12729881216925
C            5.85552249967851        1.23790889513534       -0.02614003369298
C            6.45087859142363        0.02724817950409        0.27794261257039
C            5.67076386139359       -1.11750299830240        0.50466140157111
C            4.30074093780156       -1.09842382584898        0.40140873918908
C            3.65887883821417        0.09899709753763        0.03925557017881
C            2.32030289254035        0.50462389033177       -0.15531849421409
H           -5.53982519214224        1.13293788967357       -3.14398862757691
H           -3.43898076354154        0.52074697192737       -4.25243484055203
H           -1.43905544466608       -0.07457827968363       -2.92023277345918
H           -5.69775053026983        1.17196715828728       -0.67960164652590
H           -5.31879697077079        1.06856219852428        1.90652372484359
H           -4.46811244527245        0.81752494935435        4.21115868546859
H           -2.14994324125565        0.12593991377838        4.61988511658079
H           -0.62068839518984       -0.33227808759919        2.72860274095588
H           -2.59431688685865       -2.69951538391806       -0.12010091764821
H           -1.33649689188461       -4.82071944323201       -0.40633857321004
H            1.10055852964842       -4.78750134167132       -0.73878673986429
H            2.34918100894986       -2.67419334448084       -0.72618955863723
H           -0.95505352994848        2.67848206195362       -0.32005687901143
H            1.28123472090917        3.77296621403947       -0.54201607786644
H            3.95006996344173        3.27869515530922       -0.51677184074405
H            6.44403175984647        2.13261475802425       -0.16629316124381
H            7.52458213783091       -0.03677605499969        0.36744200332832
H            6.16891327001307       -2.03696545947586        0.77799834922261
H            3.72579535839975       -1.98279946638428        0.62169559019309
