  51
        -79.04464948
 C         -4.4997737239        0.6341168662       -2.7749482539
 C         -3.2874685630        0.2080332350       -3.2968027533
 C         -2.2106575922       -0.0640075999       -2.4634500476
 C         -2.3743312216        0.0997733602       -1.1055294828
 C         -3.5977964514        0.5303744031       -0.5721908829
 C         -4.6679839958        0.7996373248       -1.4093356580
 C         -3.4664274009        0.6106811138        0.8740624427
 C         -4.3732352944        0.9755633401        1.8553592765
 C         -3.9615100556        0.9586355901        3.1784530012
 C         -2.6696036130        0.5854384313        3.5176158240
 C         -1.7553484859        0.2179574686        2.5392895364
 C         -2.1618512678        0.2331757930        1.2233622921
 C         -1.3647186844       -0.1253484871       -0.0079517247
 C         -0.8178736925       -1.5267932262        0.0201731207
 C         -1.5331659368       -2.7020568320        0.0725331088
 C         -0.8411720450       -3.9031690597        0.0114385926
 C          0.5369637795       -3.9067969862       -0.1320067026
 C          1.2563982379       -2.7232185713       -0.1777152978
 C          0.5842270801       -1.5154396293       -0.0650751522
 C          1.0341950796       -0.1281896682       -0.1090803387
 C         -0.1050355834        0.6900392090       -0.1534673170
 C         -0.0528496888        2.0624624030       -0.3230586788
 C          1.1758567336        2.6793555869       -0.4634352136
 C          2.3156718697        1.8952772997       -0.3619846083
 N          3.6184812204        2.3157958293       -0.4268482651
 C          4.4492712336        1.2542434219       -0.1949701434
 C          5.8340114062        1.2384522422       -0.1234032208
 C          6.4504582253        0.0441863814        0.1903960797
 C          5.6973271111       -1.0974124799        0.4525676552
 C          4.3190731418       -1.0843776026        0.3729923109
 C          3.6662329615        0.0903071198        0.0110426203
 C          2.2891412200        0.4909134349       -0.1398589879
 H         -5.3236122846        0.8394858075       -3.4429746133
 H         -3.1799650167        0.0862180276       -4.3646276153
 H         -1.2659523191       -0.3964243039       -2.8686203399
 H         -5.6140797390        1.1315401121       -1.0077868130
 H         -5.3802588664        1.2674202587        1.5962406624
 H         -4.6556861488        1.2396762289        3.9571083407
 H         -2.3714027918        0.5795338849        4.5557900475
 H         -0.7488415219       -0.0730991281        2.8025866182
 H         -2.6110287386       -2.6850407080        0.1456047893
 H         -1.3806282276       -4.8378606487        0.0527499273
 H          1.0608540285       -4.8479960677       -0.2170879230
 H          2.3205178340       -2.7546951402       -0.3368901867
 H         -0.9664249227        2.6368164405       -0.3605839667
 H          1.2532762295        3.7428895027       -0.6317187665
 H          3.9130224761        3.2664916395       -0.5706836936
 H          6.4066422504        2.1379546397       -0.2951188162
 H          7.5274292163       -0.0020395677        0.2544127679
 H          6.2035940299       -2.0091938618        0.7328861491
 H          3.7659259956       -1.9724538689        0.6274235023
