  76
  -102.941045084000       0.634437220668717      !
 C         -5.1098248812       -2.3853722975       -0.2844052605
 C         -5.2494215580       -1.4236688647        0.8532749801
 C         -6.4489146721       -1.3193133895        1.5407362603
 C         -6.5917585593       -0.4417842634        2.6015145008
 C         -5.5202006614        0.3400282060        2.9934541576
 C         -4.3183119770        0.2526433594        2.3143644987
 C         -4.1745893325       -0.6068720234        1.2303545996
 P         -2.5890452267       -0.8266701631        0.3380446414
 C         -1.6263080497        0.6634645088        0.8967605216
 P         -0.1679118633        0.7396906670       -0.2606998221
 C          0.7757319304       -0.6848529524        0.4636052643
 P          2.1503268600       -1.0157455427       -0.7388179075
 C          3.0512020647       -2.3793270006        0.0952742615
 C          2.5044855246       -3.1227492465        1.1357093059
 C          3.2039844473       -4.1757988052        1.6976809905
 C          4.4580342473       -4.5051288371        1.2166389407
 C          4.9985763491       -3.7870849992        0.1640367766
 C          4.3083527038       -2.7323917547       -0.4133001295
 C          4.9035533762       -1.9726133153       -1.5563858864
 C          3.2168526014        0.3890001284       -0.2057496139
 C          3.8202058642        0.3817304649        1.0456910307
 C          4.5805376037        1.4566665126        1.4652649286
 C          4.7405699745        2.5492319547        0.6313474323
 C          4.1496804937        2.5558227224       -0.6192260153
 C          3.3867741185        1.4824261648       -1.0567865518
 C          2.7607275720        1.4887263656       -2.4160992864
 C          0.6529938449        2.1989780780        0.4970257631
 C          0.7338093851        3.3352294751       -0.3011862251
 C          1.3154084323        4.4944807870        0.1767467462
 C          1.8245683797        4.5293702451        1.4630615609
 C          1.7354410765        3.4074830718        2.2698159807
 C          1.1482982871        2.2503560169        1.7940659170
 C         -3.0627444675       -0.1355929521       -1.3004832155
 C         -3.9902058492        0.8972099859       -1.3813621053
 C         -4.3345112324        1.4402913619       -2.6042379508
 C         -3.7491603317        0.9510448648       -3.7596721459
 C         -2.8288225289       -0.0782042807       -3.6838176964
 C         -2.4735045990       -0.6384076473       -2.4631599896
 C         -1.4673924841       -1.7434575006       -2.4084193379
 H         -5.1897771605       -1.8605552904       -1.2375331765
 H         -4.1316476603       -2.8683484375       -0.2529765285
 H         -5.8827489081       -3.1496650442       -0.2457611293
 H         -7.2826945302       -1.9406058005        1.2442186021
 H         -7.5340129771       -0.3753395019        3.1256370863
 H         -5.6176175284        1.0181949088        3.8290671767
 H         -3.4887745175        0.8645239789        2.6372367026
 H         -1.2899572241        0.5452318790        1.9324499397
 H         -2.2137320913        1.5808888074        0.7900745450
 H          0.0881598594       -1.5385049033        0.4434922319
 H          1.1305916694       -0.5066784477        1.4821065434
 H          1.5221001297       -2.8868172200        1.5173708438
 H          2.7667629716       -4.7385425356        2.5100280211
 H          5.0106784019       -5.3240337142        1.6532512086
 H          5.9728400480       -4.0540322890       -0.2209311454
 H          4.1348464040       -1.7449354485       -2.2968382412
 H          5.3199709894       -1.0264324623       -1.2072958872
 H          5.6971693173       -2.5436673705       -2.0330154746
 H          3.6993331105       -0.4766478631        1.6936811786
 H          5.0450429097        1.4423507868        2.4406534152
 H          5.3275579225        3.3965546801        0.9546521940
 H          4.2804772750        3.4111382880       -1.2672424473
 H          1.6993552453        1.2464034975       -2.3435597561
 H          3.2307171765        0.7371059776       -3.0509165481
 H          2.8686290449        2.4611288172       -2.8902975863
 H          0.3360525198        3.2983080643       -1.3066897848
 H          1.3750259911        5.3694762453       -0.4543059063
 H          2.2870367313        5.4298430407        1.8401902825
 H          2.1266318036        3.4347424232        3.2769160874
 H          1.0843740229        1.3891063211        2.4445419565
 H         -4.4545278715        1.2715057478       -0.4784538917
 H         -5.0579918892        2.2411345718       -2.6554483967
 H         -4.0132285981        1.3695373897       -4.7201045862
 H         -2.3756244228       -0.4578258286       -4.5888785709
 H         -0.4899791448       -1.3447214454       -2.1239800862
 H         -1.7522747873       -2.4893564357       -1.6675671115
 H         -1.3655010329       -2.2268560598       -3.3769659626
  76
  -102.939595337500       0.136814237012581      !
 C         -0.6774534369       -1.0802755593       -2.9336549110
 C         -1.1927148032       -1.6278791538       -1.6414536933
 C         -0.6877736854       -2.8401238503       -1.1765514228
 C         -1.1412547741       -3.4064852951       -0.0011124935
 C         -2.1237823702       -2.7642618833        0.7358006447
 C         -2.6222575103       -1.5517370728        0.3003209859
 C         -2.1581009681       -0.9688748820       -0.8777031829
 P         -2.7467394604        0.7077715739       -1.3660605276
 C         -1.7663206682        1.6409537080       -0.0842831107
 P          0.0011113299        1.3375199352       -0.6211130512
 C          0.4888068409        0.1187637948        0.6946658592
 P          1.7667911137       -0.9461817072       -0.1380632225
 C          1.9603077431       -2.3231556003        1.0566998992
 C          1.1725297929       -2.4833745559        2.1905632305
 C          1.3152196484       -3.5958306317        3.0004879962
 C          2.2454074150       -4.5678128306        2.6803377498
 C          3.0305536935       -4.4198743068        1.5498684199
 C          2.8982432298       -3.3112401253        0.7284477039
 C          3.7522345753       -3.1561204966       -0.4900341775
 C          3.2430942511        0.0543672522        0.3266601258
 C          3.7359382285        0.0358910853        1.6266587727
 C          4.8077088255        0.8331119679        1.9845140239
 C          5.3929060805        1.6588314761        1.0403707766
 C          4.9109485123        1.6741744894       -0.2565852505
 C          3.8404260921        0.8753558094       -0.6334216697
 C          3.3275237101        0.8994117811       -2.0383422691
 C          0.7456011927        2.9157250933       -0.0580494098
 C          0.3432876517        4.0390603369       -0.7816898832
 C          0.8815876667        5.2823348124       -0.5187944062
 C          1.8533391403        5.4205003307        0.4600655893
 C          2.2783787448        4.3085817141        1.1643780489
 C          1.7330129562        3.0622393343        0.9073968285
 C         -4.4235742621        0.6690212211       -0.6274391073
 C         -4.8097538076        1.5281208446        0.3960776688
 C         -6.1048691999        1.5135012070        0.8817608033
 C         -7.0340736104        0.6443217787        0.3391405389
 C         -6.6656740296       -0.1931479693       -0.6995702277
 C         -5.3734556168       -0.1863263292       -1.2022215423
 C         -4.9958377650       -1.0892455305       -2.3340147871
 H          0.3738963408       -0.8114807559       -2.8272470390
 H         -0.7565625035       -1.8293995472       -3.7202221658
 H         -1.2310865525       -0.1913922021       -3.2295552007
 H          0.0676204764       -3.3488105161       -1.7590821703
 H         -0.7310914011       -4.3449180773        0.3422070398
 H         -2.4918721870       -3.2034735590        1.6519665152
 H         -3.3822699993       -1.0450087827        0.8812892342
 H         -1.9467542124        1.3016654495        0.9405275630
 H         -1.9959334718        2.7055249509       -0.1775316686
 H         -0.3832084799       -0.5127058083        0.8759635728
 H          0.8229752526        0.5796516336        1.6273624596
 H          0.4377911773       -1.7377867259        2.4558055196
 H          0.6968539202       -3.7024539579        3.8802821930
 H          2.3586671257       -5.4402797009        3.3071836806
 H          3.7556106434       -5.1818769907        1.2991237866
 H          4.2964652007       -4.0719264677       -0.7081883153
 H          3.1338956623       -2.8961052064       -1.3508132988
 H          4.4723490460       -2.3490809529       -0.3456654774
 H          3.2762992310       -0.6091079731        2.3640289035
 H          5.1820596539        0.8115166544        2.9979483369
 H          6.2271666639        2.2884749800        1.3136109996
 H          5.3734994845        2.3187883308       -0.9908049897
 H          3.2855080366       -0.1111562526       -2.4441535345
 H          3.9622159295        1.5102284880       -2.6756501361
 H          2.3163395431        1.3108232185       -2.0597094508
 H         -0.3982811175        3.9232756872       -1.5626481663
 H          0.5537928463        6.1438095060       -1.0827227676
 H          2.2829637994        6.3901861570        0.6644787875
 H          3.0457423371        4.4049619680        1.9191264658
 H          2.0987107940        2.2136188758        1.4640492146
 H         -4.0972615566        2.2201167301        0.8213216139
 H         -6.3872874543        2.1829941735        1.6815278491
 H         -8.0462182414        0.6256433687        0.7159635320
 H         -7.3973140992       -0.8603474343       -1.1339741495
 H         -5.8767871252       -1.4100334656       -2.8855652557
 H         -4.3157390739       -0.5762657601       -3.0161969200
 H         -4.4823708046       -1.9756728400       -1.9586461101
  76
  -102.939122992200       8.299585872289204E-002 !
 C         -3.4985255886       -1.9509722609        1.8400292243
 C         -4.0572063674       -0.5779664730        1.6353814419
 C         -4.9485333340       -0.0308483196        2.5479017822
 C         -5.4749521956        1.2352989369        2.3623126627
 C         -5.1152358772        1.9762304161        1.2501674415
 C         -4.2260755080        1.4466319745        0.3338633537
 C         -3.6904605589        0.1777178067        0.5195074944
 P         -2.4832942318       -0.5155716930       -0.6874414294
 C         -1.1080012450        0.6602277988       -0.2687193569
 P         -0.4928408754        0.1888112579        1.4146132970
 C          1.1377872126        1.1008937100        1.2929828435
 P          2.2344177981        0.4862475765       -0.0846182590
 C          3.2862969355       -0.7847353471        0.7153949187
 C          3.2407609130       -1.1408730887        2.0566748305
 C          4.0417228740       -2.1565341266        2.5468222099
 C          4.8934913997       -2.8361071518        1.6966137808
 C          4.9429472917       -2.4914152225        0.3570890456
 C          4.1487916386       -1.4748478855       -0.1483095095
 C          4.2114070612       -1.1080615167       -1.5980439681
 C          3.3865052657        1.9213582255       -0.0420969496
 C          4.4833093593        1.9624075555        0.8105800102
 C          5.3218724125        3.0618149307        0.8252559352
 C          5.0697252805        4.1310409260       -0.0160752713
 C          3.9820616006        4.0934134257       -0.8710938145
 C          3.1324485519        2.9971495008       -0.9003562171
 C          1.9592184796        2.9693887191       -1.8315898777
 C          0.1335883642       -1.5089992452        1.1109473488
 C          0.3565250031       -2.2770817533        2.2505727146
 C          0.9013062089       -3.5431621105        2.1552377823
 C          1.2244895618       -4.0604059172        0.9123901578
 C          0.9779082089       -3.3162644708       -0.2278083361
 C          0.4304502057       -2.0485446258       -0.1348051830
 C         -3.1488203598        0.2487157406       -2.2172428977
 C         -2.4562027716        1.2024078318       -2.9557799435
 C         -2.9833116020        1.7098236890       -4.1298546292
 C         -4.2085505360        1.2597188876       -4.5866714288
 C         -4.8919122770        0.2906871421       -3.8727758320
 C         -4.3748446557       -0.2317799789       -2.6971883067
 C         -5.1234744840       -1.2850588248       -1.9434064653
 H         -3.9060205534       -2.4091762980        2.7379125302
 H         -3.7279397388       -2.5875524108        0.9856114797
 H         -2.4128780094       -1.9046573672        1.9334518731
 H         -5.2358860819       -0.6064005756        3.4168407552
 H         -6.1683913636        1.6422712276        3.0838596277
 H         -5.5262352531        2.9634411533        1.0956563951
 H         -3.9534736330        2.0210962813       -0.5417672118
 H         -1.4816828702        1.6891378944       -0.2130408255
 H         -0.2947642120        0.5951312076       -0.9994708658
 H          1.6527883286        1.1060195072        2.2570459209
 H          0.8849363978        2.1425306828        1.0592924821
 H          2.5778827221       -0.6319377153        2.7397430850
 H          3.9954313433       -2.4162390091        3.5944629516
 H          5.5176153664       -3.6329932893        2.0736415355
 H          5.6085552092       -3.0239661546       -0.3080518363
 H          4.5524937457       -0.0777319768       -1.7146481210
 H          4.8916260037       -1.7622334195       -2.1384111313
 H          3.2199434895       -1.1837832610       -2.0470609693
 H          4.6856877859        1.1251499102        1.4638239165
 H          6.1713366295        3.0816956172        1.4923333051
 H          5.7214297126        4.9924217325       -0.0106165448
 H          3.7915391915        4.9287148680       -1.5308028678
 H          1.9190404185        2.0168972678       -2.3607401397
 H          2.0210631877        3.7745703205       -2.5599717124
 H          1.0281556012        3.0831256749       -1.2745786830
 H          0.1011420570       -1.8650877670        3.2193547381
 H          1.0769237669       -4.1255600175        3.0481089377
 H          1.6603713435       -5.0453758028        0.8322479549
 H          1.2152171425       -3.7245621843       -1.1996589744
 H          0.2251687807       -1.4991664902       -1.0421759436
 H         -1.4944857643        1.5609931341       -2.6197437777
 H         -2.4346649084        2.4557868123       -4.6867932656
 H         -4.6276240003        1.6549478498       -5.5003993451
 H         -5.8431812574       -0.0712887842       -4.2376704435
 H         -5.6386438767       -0.8459039561       -1.0876954372
 H         -5.8617698908       -1.7689186637       -2.5789865579
 H         -4.4318754124       -2.0393925371       -1.5640128178
  76
  -102.938577476100       4.659663781685954E-002 !
 C         -2.2263380022        0.0197228826       -3.2335635384
 C         -3.0576404085       -0.8643591213       -2.3590062263
 C         -3.5409029825       -2.0656617127       -2.8666938068
 C         -4.3050105899       -2.9172213546       -2.0925409461
 C         -4.6023315255       -2.5757540274       -0.7834308969
 C         -4.1266341616       -1.3886728070       -0.2631006119
 C         -3.3516872757       -0.5287370277       -1.0367100780
 P         -2.7203298013        1.0352028797       -0.2946380538
 C         -1.5312372027        0.2267679614        0.8833928353
 P         -0.1373425228       -0.1837228639       -0.2843083844
 C          0.9559530533       -1.0899988170        0.9197964321
 P          2.3769230054       -1.7685885457       -0.0684249650
 C          3.4090262658       -2.5425946929        1.2369254266
 C          2.9545580712       -2.7834824060        2.5287627017
 C          3.7636286911       -3.4097757165        3.4600545754
 C          5.0375886075       -3.8140557079        3.1054007956
 C          5.4886896200       -3.6023713069        1.8141684846
 C          4.6887995181       -2.9796475013        0.8683428383
 C          5.1912085193       -2.7654822246       -0.5244483520
 C          3.3063116342       -0.1872631267       -0.2400304661
 C          3.9236064809        0.3939504884        0.8604161713
 C          4.6012907411        1.5918571655        0.7349578307
 C          4.6646904481        2.2169256559       -0.4977785940
 C          4.0564066714        1.6386228592       -1.5972306650
 C          3.3749568056        0.4349821013       -1.4880056550
 C          2.7317209905       -0.1927989961       -2.6847330141
 C          0.6019766355        1.4953570352       -0.3199876862
 C          0.5808754837        2.1630298538       -1.5390426872
 C          1.0802741728        3.4471029311       -1.6497274585
 C          1.6125222953        4.0781907382       -0.5396220171
 C          1.6328377584        3.4229250716        0.6797709247
 C          1.1260269818        2.1423221781        0.7920068384
 C         -4.1521618229        1.4205087904        0.7856801030
 C         -4.0964920129        1.3579675042        2.1736045008
 C         -5.1926656210        1.7046820018        2.9429251478
 C         -6.3579647180        2.1282087300        2.3300918018
 C         -6.4156650007        2.2127690595        0.9497397579
 C         -5.3243872390        1.8727026533        0.1651928379
 C         -5.4003918997        1.9698844078       -1.3257086021
 H         -2.2381304944        1.0444980881       -2.8661925796
 H         -1.1940631132       -0.3328271245       -3.2333683013
 H         -2.5901982873        0.0018597492       -4.2590609603
 H         -3.3116727565       -2.3319618882       -3.8891483813
 H         -4.6717378434       -3.8442896667       -2.5085238277
 H         -5.2045492665       -3.2318461624       -0.1716595800
 H         -4.3700564665       -1.1171559052        0.7557169710
 H         -1.9491693964       -0.6801684017        1.3304095485
 H         -1.1954003201        0.9270259294        1.6532539171
 H          0.3648496077       -1.9453588811        1.2686271893
 H          1.2751816378       -0.4809960578        1.7702533983
 H          1.9591743227       -2.4830298223        2.8213588992
 H          3.3969504814       -3.5815070807        4.4619654504
 H          5.6751742848       -4.3011566818        3.8285243756
 H          6.4793029649       -3.9320884345        1.5329976787
 H          5.5071669768       -1.7297505058       -0.6585166304
 H          6.0376281367       -3.4145829965       -0.7374499568
 H          4.3973315485       -2.9671393788       -1.2455402916
 H          3.8803280130       -0.0997400283        1.8223263759
 H          5.0781177578        2.0354029133        1.5970212369
 H          5.1889058233        3.1554207143       -0.6035813361
 H          4.1095311545        2.1314715431       -2.5578482956
 H          2.6811647658        0.5098325306       -3.5127831778
 H          1.7229216833       -0.5258930373       -2.4376002289
 H          3.3017644737       -1.0658665411       -3.0036239012
 H          0.1706792238        1.6645461701       -2.4053178063
 H          1.0556615398        3.9558825278       -2.6026114067
 H          2.0090384077        5.0796434144       -0.6209866169
 H          2.0439952787        3.9141514164        1.5501396751
 H          1.1473750828        1.6548965123        1.7571044775
 H         -3.1921601887        1.0323905891        2.6667153159
 H         -5.1348854752        1.6446655598        4.0203176365
 H         -7.2179656749        2.3986994070        2.9250015755
 H         -7.3237466986        2.5539050910        0.4721479276
 H         -6.2303954221        2.6014999087       -1.6341282815
 H         -4.4719993424        2.3824014460       -1.7244120791
 H         -5.5376799612        0.9795524554       -1.7626929766
  76
  -102.938564072500       4.594039375547275E-002 !
 C         -2.1016831693        0.0205471559       -3.2493171735
 C         -2.8624637597       -0.9073009815       -2.3555844259
 C         -3.2087341265       -2.1706768082       -2.8234906208
 C         -3.9063306643       -3.0633201628       -2.0333054403
 C         -4.2771611436       -2.7005834637       -0.7488424049
 C         -3.9368419930       -1.4521730364       -0.2676235367
 C         -3.2258300182       -0.5513896930       -1.0561631898
 P         -2.7600816253        1.0895303379       -0.3581060772
 C         -1.5463523306        0.4173526867        0.8796146521
 P         -0.1371291907       -0.0179963790       -0.2624826821
 C          0.9054870082       -0.9715578327        0.9487817188
 P          2.3018456804       -1.6938520409       -0.0437309644
 C          3.2875112784       -2.5418272321        1.2508405147
 C          2.8100905364       -2.7934402596        2.5324343030
 C          3.5791384377       -3.4826685453        3.4531321442
 C          4.8351411975       -3.9393763468        3.0977519384
 C          5.3080604028       -3.7157038933        1.8163737023
 C          4.5480569868       -3.0305378616        0.8809986026
 C          5.0712039809       -2.8055464655       -0.5024363909
 C          3.2982553206       -0.1505333920       -0.1768280098
 C          3.9295696825        0.3827308903        0.9399129644
 C          4.6487316677        1.5591625085        0.8458759949
 C          4.7384475264        2.2113661080       -0.3710457531
 C          4.1187649587        1.6790769573       -1.4872702117
 C          3.3977789801        0.4962092049       -1.4102226784
 C          2.7460211309       -0.0848348007       -2.6255633898
 C          0.6500791154        1.6384502462       -0.2731014623
 C          0.6398016586        2.3255780088       -1.4815220590
 C          1.1829715841        3.5931824590       -1.5771196154
 C          1.7493455414        4.1865765952       -0.4630729957
 C          1.7568030508        3.5126075320        0.7464444063
 C          1.2045721039        2.2497439849        0.8445535589
 C         -4.2539747112        1.3813665269        0.6665075129
 C         -4.2199249425        1.4135230370        2.0562818847
 C         -5.3641955939        1.6780534113        2.7871051945
 C         -6.5578288797        1.9234130920        2.1327110353
 C         -6.5955197165        1.9169550173        0.7491918788
 C         -5.4560877155        1.6588773923        0.0023746901
 C         -5.5134171410        1.6588042981       -1.4925473520
 H         -2.4686309669       -0.0424760423       -4.2721897170
 H         -2.1875479749        1.0479585189       -2.8998659424
 H         -1.0462821460       -0.2548583852       -3.2506645019
 H         -2.9237671944       -2.4529245960       -3.8274766979
 H         -4.1655767533       -4.0389784610       -2.4178437540
 H         -4.8305446802       -3.3882466843       -0.1256754542
 H         -4.2368535504       -1.1653309972        0.7318204572
 H         -1.9312673012       -0.4740698841        1.3837528855
 H         -1.2432871309        1.1796691757        1.6023164290
 H          0.2771244184       -1.8066901260        1.2807083049
 H          1.2413699348       -0.3865216398        1.8092665662
 H          1.8278389052       -2.4525812038        2.8249701399
 H          3.1948551008       -3.6635217622        4.4467005826
 H          5.4413621130       -4.4764816688        3.8123037378
 H          6.2841349688       -4.0859192224        1.5345357157
 H          4.2765899864       -2.9609910564       -1.2338230867
 H          5.4278188170       -1.7801813589       -0.6108261190
 H          5.8937188398       -3.4821438144       -0.7229501127
 H          3.8630438886       -0.1317949068        1.8895453874
 H          5.1359944107        1.9662106687        1.7201281869
 H          5.2932096750        3.1346353812       -0.4515642143
 H          4.1941352084        2.1918710619       -2.4358190576
 H          2.7375143013        0.6317841546       -3.4428368940
 H          1.7207286890       -0.3787285132       -2.3977027016
 H          3.2832890443       -0.9765325894       -2.9496962306
 H          0.2015374642        1.8557901393       -2.3503856355
 H          1.1668706190        4.1180665836       -2.5214831983
 H          2.1828487178        5.1734594670       -0.5336788684
 H          2.1950634438        3.9746732809        1.6196379208
 H          1.2158520062        1.7465104964        1.8016215209
 H         -3.2934330962        1.2286996604        2.5803224680
 H         -5.3222125712        1.6926460820        3.8668134096
 H         -7.4560082983        2.1267595839        2.6973088147
 H         -7.5265757888        2.1207363619        0.2385012821
 H         -6.3842577286        2.2043878550       -1.8494826105
 H         -4.6129409540        2.1166923565       -1.9051432851
 H         -5.5684097558        0.6361845017       -1.8691729983
  76
  -102.938456849800       4.101271990934217E-002 !
 C         -2.3317255333        0.1018210256       -3.2534512867
 C         -3.1462495701       -0.8042954807       -2.3856562342
 C         -3.6567892910       -1.9828995938       -2.9193778621
 C         -4.4020849726       -2.8559125338       -2.1507937539
 C         -4.6516083104       -2.5599293164       -0.8208167273
 C         -4.1501666474       -1.3949086973       -0.2753528131
 C         -3.3955521358       -0.5126553440       -1.0439723783
 P         -2.7353741789        1.0247770724       -0.2719688907
 C         -1.5070719818        0.1767291122        0.8352084455
 P         -0.1336464249       -0.2041252047       -0.3659447285
 C          0.9711863143       -1.1188939122        0.8206103322
 P          2.4285850622       -1.7540998126       -0.1433272407
 C          3.4234537973       -2.5506576364        1.1778513817
 C          2.9194488315       -2.8467159449        2.4398844740
 C          3.6986496694       -3.4943308600        3.3818056645
 C          4.9935130865       -3.8649678110        3.0681377842
 C          5.4949846219       -3.5980589680        1.8062065758
 C          4.7251777822       -2.9538370780        0.8495460566
 C          5.2837231283       -2.6822687649       -0.5115841196
 C          3.3389541427       -0.1560380234       -0.2456211520
 C          3.9266517897        0.3991476368        0.8842760714
 C          4.5880939923        1.6102569346        0.8093581411
 C          4.6647648520        2.2750276173       -0.4017672552
 C          4.0861758013        1.7227773845       -1.5302651472
 C          3.4213503831        0.5062372552       -1.4718752058
 C          2.8110797953       -0.0929465912       -2.7000401895
 C          0.5939327442        1.4808965965       -0.3876526942
 C          0.5592929676        2.1603202179       -1.5998800143
 C          1.0489569055        3.4490059352       -1.7018789170
 C          1.5851937644        4.0727701886       -0.5897472678
 C          1.6197109068        3.4054046534        0.6229207237
 C          1.1224504105        2.1204540335        0.7266597863
 C         -4.1233482330        1.3712887054        0.8770246522
 C         -4.0118423307        1.2651452392        2.2591732516
 C         -5.0752560285        1.5870543361        3.0830535128
 C         -6.2639060610        2.0304875633        2.5320773204
 C         -6.3777253932        2.1574449801        1.1586385518
 C         -5.3200125206        1.8412533089        0.3196403315
 C         -5.4590096031        1.9823236167       -1.1631761162
 H         -2.7228464380        0.1206653388       -4.2688439471
 H         -2.3236611435        1.1140322357       -2.8525609619
 H         -1.3031030087       -0.2592967992       -3.2922288292
 H         -3.4643153419       -2.2138860424       -3.9578869545
 H         -4.7911484154       -3.7643771481       -2.5871761936
 H         -5.2372415288       -3.2337442866       -0.2122537412
 H         -4.3569102816       -1.1584794496        0.7601658636
 H         -1.9141559804       -0.7435773883        1.2652229282
 H         -1.1511395456        0.8523976939        1.6181269872
 H          0.3902808662       -1.9929361507        1.1392486382
 H          1.2639959513       -0.5252203913        1.6916837496
 H          1.9075427535       -2.5742305157        2.7010526685
 H          3.2919282467       -3.7101110323        4.3593594739
 H          5.6085225193       -4.3674848021        3.8001611996
 H          6.5025627538       -3.9003299185        1.5563066192
 H          5.5948374088       -1.6396404493       -0.5928405753
 H          6.1449543473       -3.3155835195       -0.7124373395
 H          4.5233469922       -2.8628189399       -1.2731860906
 H          3.8717487767       -0.1250166175        1.8294098919
 H          5.0408682838        2.0339470342        1.6941920706
 H          5.1759421854        3.2243027933       -0.4679814314
 H          4.1492859386        2.2463042626       -2.4739119324
 H          2.7606923685        0.6365456250       -3.5044111338
 H          1.8048496252       -0.4536038952       -2.4830063073
 H          3.4037600781       -0.9433599340       -3.0382586933
 H          0.1455071661        1.6678814102       -2.4680587895
 H          1.0135986837        3.9665278378       -2.6497529911
 H          1.9750098696        5.0774454542       -0.6640412642
 H          2.0356163296        3.8904750885        1.4945036660
 H          1.1565794181        1.6231985007        1.6863040977
 H         -3.0891790368        0.9236515231        2.7051249160
 H         -4.9738587141        1.4924514578        4.1547464554
 H         -7.0985829965        2.2822574383        3.1698947230
 H         -7.3042873990        2.5127303061        0.7293029365
 H         -6.2982051967        2.6258938934       -1.4172647114
 H         -4.5464288373        2.4021461566       -1.5896892923
 H         -5.6204039704        1.0055575019       -1.6220032460
  76
  -102.937311308400       1.220293211413552E-002 !
 C         -2.3141892307       -2.5477879925        1.8348947637
 C         -3.4612723683       -1.6537215279        1.4766369284
 C         -4.7144319819       -1.8418744229        2.0427100097
 C         -5.7811585476       -1.0313764723        1.6951062200
 C         -5.6054007947       -0.0141890716        0.7726481717
 C         -4.3619331757        0.1880990845        0.2027046339
 C         -3.2897758226       -0.6256666536        0.5466082573
 P         -1.6061129960       -0.3594943460       -0.1526435486
 C         -1.2583925638        1.1235169017        0.9098394175
 P          0.5116108610        1.6002605737        0.6503228389
 C          1.2703645043        0.1279459440        1.4825627720
 P          1.2353186763       -1.3579986117        0.3536341051
 C          2.8518201113       -2.1371770146        0.7843597623
 C          3.4085948246       -1.9761498902        2.0519833776
 C          4.5706698185       -2.6313300796        2.4140639677
 C          5.1905542670       -3.4796883461        1.5148183918
 C          4.6124444445       -3.6961137527        0.2769474759
 C          3.4382998732       -3.0573601840       -0.0952898523
 C          2.8148346267       -3.3736491518       -1.4181828917
 C          1.5973301918       -0.5523471181       -1.2649800491
 C          0.7209165239       -0.9371935775       -2.2779737905
 C          0.7958078549       -0.4048004707       -3.5486789108
 C          1.7696786017        0.5374019131       -3.8255089150
 C          2.6665019079        0.9014755040       -2.8390332574
 C          2.6103984944        0.3668948526       -1.5560483151
 C          3.6363215919        0.8062955449       -0.5588896260
 C          0.6801002733        2.8277141648        2.0123846081
 C          1.1734078832        4.0788261419        1.6572035524
 C          1.3298033345        5.0733597204        2.6057190063
 C          0.9952385865        4.8239833841        3.9253649594
 C          0.5049808283        3.5802283780        4.2897542208
 C          0.3467982767        2.5874897563        3.3410985374
 C         -2.0255407253        0.4119503965       -1.7535181811
 C         -1.5762400078        1.6782762731       -2.1096367091
 C         -1.8176417423        2.1861870155       -3.3722765444
 C         -2.5065439300        1.4265317073       -4.3005928691
 C         -2.9324234349        0.1535799331       -3.9639398926
 C         -2.6894070411       -0.3748772421       -2.7051113281
 C         -3.1391624694       -1.7641870064       -2.3759358287
 H         -1.3995844622       -1.9714740996        1.9794896542
 H         -2.5239751163       -3.1120023166        2.7407047484
 H         -2.1252203932       -3.2542543681        1.0257957053
 H         -4.8576173302       -2.6349417882        2.7636529166
 H         -6.7499823281       -1.1937836948        2.1446447728
 H         -6.4349197858        0.6213516809        0.4981897630
 H         -4.2214490473        0.9784487923       -0.5225001556
 H         -1.4348776982        0.8323642752        1.9515285842
 H         -1.9265394319        1.9519891879        0.6522935419
 H          0.7186431322       -0.1276701806        2.3944630438
 H          2.2924804529        0.4005827261        1.7535427265
 H          2.9302810156       -1.3351451314        2.7783839870
 H          4.9878204014       -2.4807012181        3.3994277402
 H          6.1051746460       -3.9873956056        1.7836060926
 H          5.0741359214       -4.3879687412       -0.4141126798
 H          3.0725556207       -2.6183692815       -2.1608822606
 H          3.1585569560       -4.3405576102       -1.7803398364
 H          1.7289156579       -3.3962816463       -1.3243820263
 H         -0.0280091236       -1.6863282258       -2.0562521106
 H          0.0969233233       -0.7150224506       -4.3110905076
 H          1.8390340312        0.9790225005       -4.8089265921
 H          3.4402841493        1.6224961231       -3.0655880268
 H          3.2505018062        1.6416916834        0.0313805146
 H          4.5354414489        1.1478772803       -1.0684790855
 H          3.9048545331       -0.0055673706        0.1130220850
 H          1.4353966676        4.2634764142        0.6234423964
 H          1.7126813930        6.0414299277        2.3167733403
 H          1.1144892860        5.5966392691        4.6706591388
 H          0.2424389702        3.3846671260        5.3198209662
 H         -0.0389222457        1.6243793222        3.6453135306
 H         -1.0152289231        2.2758384891       -1.4041371729
 H         -1.4624725841        3.1728533845       -3.6315035143
 H         -2.7009062721        1.8179643545       -5.2885702455
 H         -3.4553316948       -0.4472113945       -4.6956649663
 H         -3.2211268874       -2.3685217126       -3.2772038909
 H         -2.4349499454       -2.2402473541       -1.6909623890
 H         -4.1139794312       -1.7448525919       -1.8864552727
