  76
       -103.47823424
 C         -5.1098248812       -2.3853722975       -0.2844052605
 C         -5.2494215580       -1.4236688647        0.8532749801
 C         -6.4489146721       -1.3193133895        1.5407362603
 C         -6.5917585593       -0.4417842634        2.6015145008
 C         -5.5202006614        0.3400282060        2.9934541576
 C         -4.3183119770        0.2526433594        2.3143644987
 C         -4.1745893325       -0.6068720234        1.2303545996
 P         -2.5890452267       -0.8266701631        0.3380446414
 C         -1.6263080497        0.6634645088        0.8967605216
 P         -0.1679118633        0.7396906670       -0.2606998221
 C          0.7757319304       -0.6848529524        0.4636052643
 P          2.1503268600       -1.0157455427       -0.7388179075
 C          3.0512020647       -2.3793270006        0.0952742615
 C          2.5044855246       -3.1227492465        1.1357093059
 C          3.2039844473       -4.1757988052        1.6976809905
 C          4.4580342473       -4.5051288371        1.2166389407
 C          4.9985763491       -3.7870849992        0.1640367766
 C          4.3083527038       -2.7323917547       -0.4133001295
 C          4.9035533762       -1.9726133153       -1.5563858864
 C          3.2168526014        0.3890001284       -0.2057496139
 C          3.8202058642        0.3817304649        1.0456910307
 C          4.5805376037        1.4566665126        1.4652649286
 C          4.7405699745        2.5492319547        0.6313474323
 C          4.1496804937        2.5558227224       -0.6192260153
 C          3.3867741185        1.4824261648       -1.0567865518
 C          2.7607275720        1.4887263656       -2.4160992864
 C          0.6529938449        2.1989780780        0.4970257631
 C          0.7338093851        3.3352294751       -0.3011862251
 C          1.3154084323        4.4944807870        0.1767467462
 C          1.8245683797        4.5293702451        1.4630615609
 C          1.7354410765        3.4074830718        2.2698159807
 C          1.1482982871        2.2503560169        1.7940659170
 C         -3.0627444675       -0.1355929521       -1.3004832155
 C         -3.9902058492        0.8972099859       -1.3813621053
 C         -4.3345112324        1.4402913619       -2.6042379508
 C         -3.7491603317        0.9510448648       -3.7596721459
 C         -2.8288225289       -0.0782042807       -3.6838176964
 C         -2.4735045990       -0.6384076473       -2.4631599896
 C         -1.4673924841       -1.7434575006       -2.4084193379
 H         -5.1897771605       -1.8605552904       -1.2375331765
 H         -4.1316476603       -2.8683484375       -0.2529765285
 H         -5.8827489081       -3.1496650442       -0.2457611293
 H         -7.2826945302       -1.9406058005        1.2442186021
 H         -7.5340129771       -0.3753395019        3.1256370863
 H         -5.6176175284        1.0181949088        3.8290671767
 H         -3.4887745175        0.8645239789        2.6372367026
 H         -1.2899572241        0.5452318790        1.9324499397
 H         -2.2137320913        1.5808888074        0.7900745450
 H          0.0881598594       -1.5385049033        0.4434922319
 H          1.1305916694       -0.5066784477        1.4821065434
 H          1.5221001297       -2.8868172200        1.5173708438
 H          2.7667629716       -4.7385425356        2.5100280211
 H          5.0106784019       -5.3240337142        1.6532512086
 H          5.9728400480       -4.0540322890       -0.2209311454
 H          4.1348464040       -1.7449354485       -2.2968382412
 H          5.3199709894       -1.0264324623       -1.2072958872
 H          5.6971693173       -2.5436673705       -2.0330154746
 H          3.6993331105       -0.4766478631        1.6936811786
 H          5.0450429097        1.4423507868        2.4406534152
 H          5.3275579225        3.3965546801        0.9546521940
 H          4.2804772750        3.4111382880       -1.2672424473
 H          1.6993552453        1.2464034975       -2.3435597561
 H          3.2307171765        0.7371059776       -3.0509165481
 H          2.8686290449        2.4611288172       -2.8902975863
 H          0.3360525198        3.2983080643       -1.3066897848
 H          1.3750259911        5.3694762453       -0.4543059063
 H          2.2870367313        5.4298430407        1.8401902825
 H          2.1266318036        3.4347424232        3.2769160874
 H          1.0843740229        1.3891063211        2.4445419565
 H         -4.4545278715        1.2715057478       -0.4784538917
 H         -5.0579918892        2.2411345718       -2.6554483967
 H         -4.0132285981        1.3695373897       -4.7201045862
 H         -2.3756244228       -0.4578258286       -4.5888785709
 H         -0.4899791448       -1.3447214454       -2.1239800862
 H         -1.7522747873       -2.4893564357       -1.6675671115
 H         -1.3655010329       -2.2268560598       -3.3769659626
