  48
  -71.7069785000000       0.102320697312142      !
 C          0.8453368480       -2.7856061943       -1.1377126868
 C          0.2493764031       -1.9889426589        0.0522624326
 C          0.6486493898       -2.5729895042        1.4266581008
 C         -1.2618499755       -2.1301219308       -0.0166791077
 C         -1.8177664681       -3.4021152071       -0.0495037549
 C         -3.1858909250       -3.5986952740       -0.0761190435
 C         -4.0293100382       -2.5019129820       -0.0693001804
 C         -3.5013072531       -1.2280348325       -0.0414719234
 C         -2.1184867013       -1.0307085907       -0.0150713707
 N         -1.5964146914        0.2526034079        0.0102029548
 C         -2.5079008334        1.3481616947        0.0105967876
 C         -2.9358901826        1.8908683902        1.2152318858
 C         -3.8317098953        2.9455340727        1.2138211707
 C         -4.3010554233        3.4574195283        0.0155235003
 C         -3.8751323728        2.9142685279       -1.1855185879
 C         -2.9797306497        1.8595953320       -1.1918607466
 C         -0.2378494541        0.4925987570       -0.0072763760
 C          0.1789980150        1.8463892552       -0.0348914344
 C          1.4949142217        2.1750433380       -0.0457188696
 C          2.4817210302        1.1690326052       -0.0308846729
 C          3.8389874815        1.5251272078       -0.0358377040
 C          4.8230471437        0.5626798222       -0.0183308244
 C          6.1872314428        0.9199971457       -0.0244022113
 N          7.2990614365        1.2041076962       -0.0164868776
 C          4.4479806879       -0.7977647464        0.0025766221
 C          3.1325452685       -1.1567405091        0.0054536273
 C          2.0820588516       -0.2003439882       -0.0089465358
 C          0.6989991920       -0.5341966778        0.0001004933
 H          0.0486429849       -3.1159068394       -1.8013055278
 H          1.3841827335       -3.6680698388       -0.8004065947
 H          1.5180233469       -2.1701636267       -1.7286637741
 H          0.4439062955       -3.6398915490        1.4632815392
 H          0.0571840543       -2.0892714637        2.2030326687
 H          1.6954731707       -2.4096782543        1.6596065060
 H         -1.1665803469       -4.2631560012       -0.0555947700
 H         -3.5886593720       -4.5996571919       -0.0995012958
 H         -5.1005964437       -2.6351274088       -0.0868921856
 H         -4.1638209546       -0.3762450281       -0.0379862511
 H         -2.5630979302        1.4824407220        2.1429172048
 H         -4.1643118189        3.3674584238        2.1503500890
 H         -5.0010050083        4.2793102973        0.0175158781
 H         -4.2427992332        3.3110265320       -2.1200670968
 H         -2.6403935453        1.4268170666       -2.1213544733
 H         -0.5689649215        2.6235276200       -0.0460040303
 H          1.8017059306        3.2103180960       -0.0645615003
 H          4.1042033065        2.5729452031       -0.0536462191
 H          5.2203711218       -1.5531146985        0.0147852114
 H          2.9097390874       -2.2079582991        0.0154671898
  48
  -71.7069747500000       0.101915469733861      !
 C          0.6432557386       -2.5842418777       -1.4056073299
 C          0.2491814228       -1.9891037120       -0.0343836732
 C          0.8485673435       -2.7766302648        1.1599203004
 C         -1.2617465347       -2.1294908254        0.0411700257
 C         -1.8175372630       -3.4011498002        0.0872459119
 C         -3.1856384974       -3.5974713445        0.1176706491
 C         -4.0290508524       -2.5008011403        0.0992360353
 C         -3.5011386356       -1.2272796855        0.0569246295
 C         -2.1183227748       -1.0300591598        0.0291778027
 N         -1.5961701771        0.2529654720       -0.0095811454
 C         -2.5074467311        1.3484275732       -0.0288046595
 C         -3.0059520463        1.8589160477        1.1632557838
 C         -3.9025149964        2.9123239982        1.1376686594
 C         -4.3020543358        3.4561009318       -0.0721092417
 C         -3.8053621345        2.9458022516       -1.2600085871
 C         -2.9093520268        1.8915070134       -1.2422627238
 C         -0.2375254500        0.4928852113        0.0070308657
 C          0.1797569264        1.8466646973        0.0300242146
 C          1.4957878552        2.1749652516        0.0399877741
 C          2.4823597411        1.1686367144        0.0281362413
 C          3.8397760655        1.5240936066        0.0318496888
 C          4.8234190359        0.5610455452        0.0175969845
 C          6.1873969464        0.9192051743        0.0214010343
 N          7.2977183471        1.2092565061        0.0177573549
 C          4.4478675717       -0.7992546159        0.0000838215
 C          3.1322534404       -1.1576595658       -0.0010455160
 C          2.0822568979       -0.2006985921        0.0117570917
 C          0.6990891205       -0.5341224672        0.0058277058
 H          0.4476199443       -3.6532072663       -1.4296278044
 H          1.6868524308       -2.4141723458       -1.6480573431
 H          0.0419392501       -2.1139390503       -2.1826606279
 H          0.0537175441       -3.1023242755        1.8280617865
 H          1.5223881034       -2.1561634531        1.7443004832
 H          1.3873214843       -3.6612389052        0.8280477381
 H         -1.1661758511       -4.2619460735        0.1018191086
 H         -3.5884281670       -4.5980983521        0.1525333727
 H         -5.1003306460       -2.6338281861        0.1185483877
 H         -4.1638574796       -0.3757712885        0.0428814450
 H         -2.6870294518        1.4257022370        2.0998411438
 H         -4.2885676415        3.3102845722        2.0642101459
 H         -5.0008121719        4.2788326544       -0.0889984710
 H         -4.1163240994        3.3690190395       -2.2033318959
 H         -2.5153874439        1.4843390685       -2.1617219324
 H         -0.5680006738        2.6240550083        0.0406229681
 H          1.8028934701        3.2101856472        0.0568848177
 H          4.1057218548        2.5718141879        0.0451275044
 H          5.2198376777       -1.5550445844       -0.0110933617
 H          2.9088843187       -2.2087941372       -0.0084271117
  48
  -71.7069738200000       0.101815221895458      !
 C          0.8533566920       -2.7911073096       -1.1234867021
 C          0.2488864705       -1.9890543832        0.0586886381
 C          0.6377403661       -2.5670422225        1.4387088829
 C         -1.2619024606       -2.1304345037       -0.0201869384
 C         -1.8174967882       -3.4025102954       -0.0560569366
 C         -3.1854707852       -3.5991967316       -0.0901320862
 C         -4.0290074595       -2.5024609530       -0.0859283671
 C         -3.5012780448       -1.2285316212       -0.0540175089
 C         -2.1185943004       -1.0310548509       -0.0222413905
 N         -1.5965636351        0.2522774182        0.0054577696
 C         -2.5075430137        1.3481321323        0.0120630014
 C         -2.9163565836        1.8987247387        1.2198080618
 C         -3.8111680595        2.9541401848        1.2257254512
 C         -4.2993603412        3.4583602053        0.0316460225
 C         -3.8927591928        2.9071758559       -1.1724762021
 C         -2.9977923904        1.8522929839       -1.1862232517
 C         -0.2379230663        0.4921109809       -0.0135626192
 C          0.1790418802        1.8455666753       -0.0540423960
 C          1.4949701173        2.1740663444       -0.0683854064
 C          2.4816811829        1.1682319671       -0.0411940583
 C          3.8389373577        1.5242082761       -0.0473838634
 C          4.8228697071        0.5618794522       -0.0153963527
 C          6.1867946171        0.9200178984       -0.0197697869
 N          7.2971469660        1.2095749872       -0.0223364721
 C          4.4477080506       -0.7982566379        0.0221014447
 C          3.1322974957       -1.1572095584        0.0245986088
 C          2.0819289803       -0.2009186004       -0.0055232454
 C          0.6988546085       -0.5346464362        0.0019781531
 H          1.5347642042       -2.1802188508       -1.7091220817
 H          0.0617302788       -3.1189962354       -1.7943774584
 H          1.3848941959       -3.6752385820       -0.7789628284
 H          1.6819607030       -2.3995817299        1.6806737471
 H          0.4360312110       -3.6345025571        1.4769887804
 H          0.0377127578       -2.0827646331        2.2082366103
 H         -1.1661343637       -4.2634036866       -0.0590359469
 H         -3.5880863167       -4.6001812571       -0.1162611532
 H         -5.1001935319       -2.6357681219       -0.1084001682
 H         -4.1639186572       -0.3768409982       -0.0519096264
 H         -2.5286576812        1.4965410871        2.1440290490
 H         -4.1282989456        3.3825946433        2.1646343125
 H         -4.9979890512        4.2812782779        0.0392843215
 H         -4.2740462327        3.2987054127       -2.1034035446
 H         -2.6737558319        1.4129620403       -2.1181899329
 H         -0.5688437214        2.6225931623       -0.0745013095
 H          1.8018811713        3.2090722677       -0.0993576228
 H          4.1043115231        2.5718518913       -0.0764582434
 H          5.2199449736       -1.5533907032        0.0479259383
 H          2.9093843304       -2.2083534108        0.0476125156
  48
  -71.7069704900000       0.101457077937220      !
 C          0.6370189280       -2.5676031200       -1.4280371631
 C          0.2489575131       -1.9882625997       -0.0485059694
 C          0.8548618486       -2.7893575314        1.1334907841
 C         -1.2616305111       -2.1291883006        0.0337703539
 C         -1.8175074801       -3.4010600274        0.0722635715
 C         -3.1852230781       -3.5972471482        0.1166183915
 C         -4.0282885653       -2.5001579711        0.1227455981
 C         -3.5003687801       -1.2264718556        0.0862453074
 C         -2.1179902238       -1.0295796058        0.0398624140
 N         -1.5959308087        0.2535030461        0.0040898923
 C         -2.5075796531        1.3485565910       -0.0243131589
 C         -2.9823993841        1.8914476648        1.1631573318
 C         -3.8795889501        2.9440528321        1.1264549265
 C         -4.3040743791        3.4540071159       -0.0895576024
 C         -3.8312077493        2.9111697646       -1.2727669218
 C         -2.9339762768        1.8581667922       -1.2438698225
 C         -0.2373069880        0.4933046156        0.0147018907
 C          0.1798319627        1.8470396631        0.0402690496
 C          1.4958482731        2.1753685632        0.0507297183
 C          2.4824257383        1.1691078415        0.0350082614
 C          3.8398399023        1.5246345995        0.0419547495
 C          4.8235492088        0.5618934171        0.0216043403
 C          6.1879600840        0.9182500102        0.0300009653
 N          7.2997852629        1.2024058402        0.0370893735
 C          4.4480168841       -0.7982565253       -0.0073948069
 C          3.1324764268       -1.1567021171       -0.0120411259
 C          2.0823562153       -0.2001013598        0.0097583774
 C          0.6992652444       -0.5337165322        0.0043186928
 H          0.0384283540       -2.0824060713       -2.1980173706
 H          0.4334051133       -3.6346663807       -1.4660978665
 H          1.6817338774       -2.4020302608       -1.6691116012
 H          0.0631492114       -3.1286329316        1.7984318730
 H          1.5263914269       -2.1735858009        1.7253994239
 H          1.3974238128       -3.6665216390        0.7883857868
 H         -1.1665570116       -4.2623101603        0.0694632293
 H         -3.5879781988       -4.5981102107        0.1444880303
 H         -5.0992092035       -2.6329942696        0.1571010524
 H         -4.1626183356       -0.3745096388        0.0927390056
 H         -2.6445719908        1.4841291890        2.1047553611
 H         -4.2482781397        3.3664353422        2.0491866543
 H         -5.0044501271        4.2751526864       -0.1149066563
 H         -4.1624880238        3.3071769363       -2.2210169672
 H         -2.5592643207        1.4250524901       -2.1594976356
 H         -0.5681489377        2.6242775937        0.0512689754
 H          1.8029512093        3.2105455159        0.0700419506
 H          4.1055079152        2.5722496044        0.0635862210
 H          5.2201108821       -1.5537710134       -0.0248146270
 H          2.9092186180       -2.2076925650       -0.0298629410
  48
  -71.7069696100000       0.101362643919151      !
 C          0.6444728677       -2.5873655455       -1.4039029258
 C          0.2487868669       -1.9904605624       -0.0340492890
 C          0.8472576192       -2.7771779921        1.1614162695
 C         -1.2623559634       -2.1305144807        0.0400960788
 C         -1.8185730220       -3.4019987767        0.0856523675
 C         -3.1867307246       -3.5979758160        0.1171590027
 C         -4.0299310922       -2.5011036532        0.1003551850
 C         -3.5016561324       -1.2277012935        0.0589223346
 C         -2.1188318911       -1.0308926380        0.0301822502
 N         -1.5964692159        0.2520153299       -0.0067666042
 C         -2.5072501879        1.3479831836       -0.0270478688
 C         -3.0102524038        1.8555253308        1.1648670238
 C         -3.9050355620        2.9104465414        1.1389023833
 C         -4.2982384717        3.4590278524       -0.0712150513
 C         -3.7974555750        2.9514608970       -1.2588748123
 C         -2.9033515952        1.8952736654       -1.2407466386
 C         -0.2377844947        0.4917115165        0.0060237986
 C          0.1791804237        1.8457290615        0.0273959923
 C          1.4950482587        2.1742670666        0.0335791131
 C          2.4816858381        1.1679348383        0.0218967898
 C          3.8389338535        1.5240010026        0.0246482434
 C          4.8232427067        0.5613007663        0.0150460033
 C          6.1866992234        0.9214985464        0.0208701909
 N          7.2959037442        1.2158195286        0.0280049192
 C          4.4481612002       -0.7991403333        0.0017577580
 C          3.1325449442       -1.1579953763       -0.0003294775
 C          2.0819848833       -0.2015442628        0.0088471246
 C          0.6988254154       -0.5353630216        0.0041348487
 H          0.0507002444       -2.1113998248       -2.1834496877
 H          0.4400414311       -3.6547328845       -1.4296636783
 H          1.6906985812       -2.4260479428       -1.6413129476
 H          1.3850652388       -3.6629704590        0.8306934503
 H          0.0517352032       -3.1011298165        1.8298164247
 H          1.5217713354       -2.1567286296        1.7452102506
 H         -1.1677145703       -4.2631292512        0.0975186312
 H         -3.5897436357       -4.5985749136        0.1502378209
 H         -5.1012686745       -2.6337394201        0.1200882715
 H         -4.1640940669       -0.3759347982        0.0467735789
 H         -2.6958429137        1.4185690364        2.1015584328
 H         -4.2954570127        3.3053432397        2.0652928609
 H         -4.9963694096        4.2824113598       -0.0883547024
 H         -4.1043543955        3.3775143565       -2.2026296047
 H         -2.5061721087        1.4906149546       -2.1601729412
 H         -0.5687174725        2.6226753776        0.0405579093
 H          1.8021894002        3.2093068722        0.0491443374
 H          4.1043011499        2.5717279686        0.0362062250
 H          5.2205528813       -1.5548760990       -0.0045828578
 H          2.9098713351       -2.2094566785       -0.0029609002
  48
  -71.7069684800000       0.101241510944044      !
 C          0.6478386840       -2.5864009239       -1.3959107953
 C          0.2499726632       -1.9876795124       -0.0275328137
 C          0.8455962438       -2.7722583150        1.1704392307
 C         -1.2611711955       -2.1279573836        0.0434378722
 C         -1.8168286789       -3.3997832990        0.0901453380
 C         -3.1850560719       -3.5966016918        0.1143212484
 C         -4.0286477063       -2.5000951098        0.0889197413
 C         -3.5008238434       -1.2263305052        0.0479077683
 C         -2.1178165616       -1.0286117538        0.0272640471
 N         -1.5955590815        0.2546685287       -0.0097031800
 C         -2.5075934553        1.3493076216       -0.0284827205
 C         -3.0262289282        1.8416329265        1.1619933149
 C         -3.9261568456        2.8921084216        1.1364361679
 C         -4.3081231450        3.4517476509       -0.0716606560
 C         -3.7903837872        2.9604855160       -1.2577748851
 C         -2.8913007668        1.9088637361       -1.2402491332
 C         -0.2368232499        0.4943990842        0.0090454312
 C          0.1806511461        1.8483554959        0.0344926350
 C          1.4968452283        2.1765926026        0.0411659674
 C          2.4835523732        1.1698286828        0.0274442752
 C          3.8411777272        1.5246807110        0.0260112993
 C          4.8241267398        0.5613108440        0.0129376491
 C          6.1888784204        0.9153296316        0.0138499289
 N          7.3003463079        1.2003545877       -0.0036883702
 C          4.4479934200       -0.7988726925        0.0041209280
 C          3.1324751232       -1.1569240295        0.0079305993
 C          2.0829493598       -0.1994913447        0.0159266442
 C          0.6997444293       -0.5326653871        0.0098357351
 H          1.6951522431       -2.4301691568       -1.6307712523
 H          0.0589647751       -2.1071698923       -2.1768710500
 H          0.4381036521       -3.6523296794       -1.4225694200
 H          1.3783593972       -3.6618096872        0.8430668113
 H          0.0497306480       -3.0888919900        1.8413376830
 H          1.5232998732       -2.1527483929        1.7500303671
 H         -1.1653339507       -4.2602112103        0.1054177997
 H         -3.5877763582       -4.5973987781        0.1468402849
 H         -5.1000224640       -2.6333828218        0.1028659344
 H         -4.1639635195       -0.3751947726        0.0297423988
 H         -2.7226940940        1.3946379190        2.0970188695
 H         -4.3296887035        3.2739286758        2.0615218680
 H         -5.0103642102        4.2715046736       -0.0885737974
 H         -4.0875764816        3.3962567795       -2.1996970145
 H         -2.4822017830        1.5155896507       -2.1587465232
 H         -0.5672885638        2.6260449335        0.0474632928
 H          1.8038654603        3.2121051879        0.0577249065
 H          4.1074453052        2.5726260503        0.0321739194
 H          5.2199326296       -1.5550436852       -0.0004019009
 H          2.9088416525       -2.2082202021        0.0095449951
  48
  -71.7069672100000       0.101105543108088      !
 C          0.8310452695       -2.7802192211       -1.1520734902
 C          0.2494095605       -1.9893934504        0.0490617734
 C          0.6643300618       -2.5814310086        1.4152983118
 C         -1.2625979228       -2.1292219635       -0.0058103818
 C         -1.8199843407       -3.4006880291       -0.0359254016
 C         -3.1883475092       -3.5959079021       -0.0598980880
 C         -4.0306406491       -2.4982224869       -0.0559767435
 C         -3.5012564929       -1.2249074621       -0.0300654638
 C         -2.1182355974       -1.0290762378       -0.0020422470
 N         -1.5950760589        0.2537864980        0.0243095517
 C         -2.5067764246        1.3491628926        0.0128770527
 C         -2.9846842320        1.8640025427        1.2111424114
 C         -3.8833775414        2.9161969712        1.1967875551
 C         -4.3057852097        3.4533125097       -0.0081553882
 C         -3.8292063616        2.9385242560       -1.2029077177
 C         -2.9308694640        1.8864029441       -1.1962628363
 C         -0.2364414771        0.4928846550        0.0037900928
 C          0.1809819678        1.8467316220       -0.0092623038
 C          1.4970190609        2.1748042912       -0.0217813389
 C          2.4831321414        1.1679814764       -0.0237576516
 C          3.8404856756        1.5235666492       -0.0302117855
 C          4.8243769487        0.5606687782       -0.0267743778
 C          6.1879690428        0.9204894265       -0.0265869896
 N          7.2985436803        1.2097723129       -0.0202857595
 C          4.4488912527       -0.7997017865       -0.0221412363
 C          3.1333076662       -1.1582119888       -0.0172715556
 C          2.0829693256       -0.2014598945       -0.0137390134
 C          0.6997287190       -0.5346442392        0.0005445513
 H          0.0264838646       -3.1022369542       -1.8102973199
 H          1.3690477342       -3.6674980860       -0.8261289364
 H          1.5007386430       -2.1634800295       -1.7449935646
 H          0.0836029128       -2.1005033272        2.2015186091
 H          1.7144647786       -2.4219387446        1.6359549813
 H          0.4577184354       -3.6481150700        1.4489273760
 H         -1.1697960876       -4.2624768605       -0.0445408768
 H         -3.5922317117       -4.5964934394       -0.0811471796
 H         -5.1020905538       -2.6301619381       -0.0744257583
 H         -4.1629119796       -0.3723751879       -0.0309024764
 H         -2.6492663544        1.4351621428        2.1437854947
 H         -4.2553525342        3.3161306057        2.1282175199
 H         -5.0078567718        4.2733802680       -0.0164091903
 H         -4.1576493591        3.3567710371       -2.1423654444
 H         -2.5519228114        1.4757470884       -2.1203848689
 H         -0.5666725615        2.6242725066       -0.0052822688
 H          1.8045081462        3.2100193171       -0.0282211942
 H          4.1060410274        2.5714341337       -0.0360678516
 H          5.2209910434       -1.5555119610       -0.0228758686
 H          2.9101735928       -2.2094678245       -0.0208602499
  48
  -71.7069601700000       0.100355136603446      !
 C          0.6314998017       -2.5549398658       -1.4333882437
 C          0.2487292693       -1.9871353012       -0.0475238793
 C          0.8577691049       -2.7980072186        1.1259778768
 C         -1.2617000523       -2.1284891654        0.0362173153
 C         -1.8173068188       -3.4006003090        0.0689355642
 C         -3.1852497704       -3.5972810803        0.1041846999
 C         -4.0285779032       -2.5004263154        0.1046686243
 C         -3.5007946656       -1.2264211226        0.0759222247
 C         -2.1181713796       -1.0289149952        0.0425243703
 N         -1.5955545440        0.2543609076        0.0188106782
 C         -2.5065331714        1.3492934820       -0.0256912229
 C         -2.8875580059        1.8771437208       -1.2525338882
 C         -3.7862396590        2.9281800093       -1.2994399028
 C         -4.3058657448        3.4509201964       -0.1268799628
 C         -3.9259610330        2.9235011907        1.0963855006
 C         -3.0271804218        1.8729692504        1.1510949584
 C         -0.2368936697        0.4936723285        0.0369509399
 C          0.1804633519        1.8467309198        0.0849067670
 C          1.4966245332        2.1746426561        0.0974883905
 C          2.4830564384        1.1686792822        0.0618708617
 C          3.8405843063        1.5238329947        0.0642918768
 C          4.8239195215        0.5612117040        0.0253891501
 C          6.1883528461        0.9175953166        0.0265349430
 N          7.2998303858        1.2029848777        0.0252906992
 C          4.4480871527       -0.7985195941       -0.0165050880
 C          3.1324702146       -1.1566984545       -0.0165843689
 C          2.0827076205       -0.2001580062        0.0218703469
 C          0.6995344563       -0.5333224148        0.0165587800
 H          0.4237322388       -3.6208667637       -1.4808652691
 H          1.6759547350       -2.3908754080       -1.6762947863
 H          0.0323706245       -2.0604994662       -2.1970690048
 H          1.3861031531       -3.6806540097        0.7726280582
 H          0.0690496457       -3.1291975940        1.7985457388
 H          1.5430248862       -2.1923712423        1.7124832498
 H         -1.1660498855       -4.2615893667        0.0665843048
 H         -3.5878322926       -4.5983294555        0.1272418372
 H         -5.0997958662       -2.6335463839        0.1286820658
 H         -4.1637032403       -0.3749544839        0.0773602555
 H         -2.4759112993        1.4599014414       -2.1597049224
 H         -4.0818325968        3.3384542455       -2.2534144403
 H         -5.0082563960        4.2697762495       -0.1663858322
 H         -4.3312380310        3.3302321478        2.0107571884
 H         -2.7248887734        1.4516425358        2.0984841428
 H         -0.5674890534        2.6236023853        0.1125190324
 H          1.8039451027        3.2093212992        0.1336089996
 H          4.1068451202        2.5711062203        0.0967593445
 H          5.2198790710       -1.5539144627       -0.0475821787
 H          2.9090338522       -2.2075442878       -0.0439574081
  48
  -71.7069166000000       9.583325091644090E-002 !
 C          0.6129415069       -2.5353739187       -1.4590645741
 C          0.2469867168       -1.9882343728       -0.0602791757
 C          0.8719775708       -2.8165172685        1.0926120607
 C         -1.2624657740       -2.1316612685        0.0381147846
 C         -1.8163048209       -3.4047206405        0.0669105715
 C         -3.1837567588       -3.6035664883        0.1069037668
 C         -4.0286288857       -2.5079461425        0.1114546159
 C         -3.5027275702       -1.2331329817        0.0849190514
 C         -2.1204255063       -1.0331596491        0.0531384991
 N         -1.5987985539        0.2508428960        0.0354158470
 C         -2.5057723563        1.3475773771       -0.0280247392
 C         -2.8002692376        1.9240436651       -1.2568592708
 C         -3.6902028583        2.9813157944       -1.3251179888
 C         -4.2889620821        3.4611140194       -0.1721492343
 C         -3.9966475805        2.8843377219        1.0529909640
 C         -3.1055820151        1.8286667680        1.1292782724
 C         -0.2399689061        0.4900618982        0.0635692183
 C          0.1759463796        1.8415246911        0.1529658316
 C          1.4916551333        2.1706458969        0.1722805110
 C          2.4790027959        1.1675277416        0.1002000056
 C          3.8359413346        1.5250532617        0.1003878816
 C          4.8203065878        0.5656569834        0.0251664230
 C          6.1843059336        0.9234624807        0.0221097644
 N          7.2957379182        1.2086095629        0.0188863029
 C          4.4459782362       -0.7931449854       -0.0494483008
 C          3.1309897219       -1.1537662469       -0.0445138697
 C          2.0802173994       -0.2003637944        0.0281983108
 C          0.6973820989       -0.5353332414        0.0223824418
 H          0.3967808048       -3.5988324725       -1.5215695201
 H          1.6564462267       -2.3748806625       -1.7083980268
 H          0.0105467162       -2.0242788712       -2.2090570769
 H          1.5579257082       -2.2163760442        1.6838983414
 H          1.4036791836       -3.6883416202        0.7182276279
 H          0.0918948929       -3.1658308805        1.7660614214
 H         -1.1639939601       -4.2648722870        0.0563698925
 H         -3.5848923068       -4.6052496519        0.1282700351
 H         -5.0995951876       -2.6425874504        0.1356707370
 H         -4.1672727344       -0.3830424112        0.0854126353
 H         -2.3270000888        1.5408927935       -2.1489113151
 H         -3.9177022589        3.4294711065       -2.2806916334
 H         -4.9843904249        4.2849273957       -0.2282333325
 H         -4.4633779805        3.2577505014        1.9521854229
 H         -2.8704574224        1.3701581077        2.0785247476
 H         -0.5727390741        2.6160514507        0.2104049799
 H          1.7977556489        3.2040551180        0.2410858408
 H          4.1004766567        2.5715651552        0.1588987893
 H          5.2187002410       -1.5459567092       -0.1095469725
 H          2.9088137191       -2.2037857055       -0.0983550509
  48
  -71.7068841000000       9.259344763014972E-002 !
 C          0.5939438643       -2.5477928686       -1.4458365921
 C          0.2456741635       -1.9901592896       -0.0466205374
 C          0.8845589054       -2.8089838208        1.1050252152
 C         -1.2625748642       -2.1334927765        0.0684978894
 C         -1.8143368263       -3.4068021154        0.1175682462
 C         -3.1814158214       -3.6071752160        0.1613640150
 C         -4.0278295950       -2.5129246689        0.1440817848
 C         -3.5038586156       -1.2378205945        0.0988170688
 C         -2.1218244471       -1.0357354490        0.0705475435
 N         -1.6008794851        0.2486628117        0.0398292522
 C         -2.5057445972        1.3464044182       -0.0249064751
 C         -3.1453574055        1.7959451639        1.1238526590
 C         -4.0313975637        2.8557065686        1.0465079492
 C         -4.2783373898        3.4692574425       -0.1706799731
 C         -3.6397025353        3.0212844488       -1.3151113627
 C         -2.7556476758        1.9592765209       -1.2462256140
 C         -0.2416446187        0.4883261836        0.0641381027
 C          0.1746793283        1.8395424114        0.1563326523
 C          1.4903274404        2.1690740798        0.1675769374
 C          2.4775463834        1.1667869996        0.0835470247
 C          3.8342255119        1.5248754103        0.0716560169
 C          4.8182764821        0.5658591969       -0.0128497916
 C          6.1813247479        0.9273532860       -0.0267449798
 N          7.2908354464        1.2200167628       -0.0328206046
 C          4.4439628678       -0.7928911928       -0.0860525454
 C          3.1292039638       -1.1540937160       -0.0695810403
 C          2.0787797216       -0.2011908942        0.0142197196
 C          0.6959972811       -0.5365922081        0.0209134583
 H         -0.0254130867       -2.0497289881       -2.1906990503
 H          0.3862802918       -3.6136741725       -1.4946936050
 H          1.6315339221       -2.3803997081       -1.7144784942
 H          0.1141429819       -3.1413255750        1.7978616162
 H          1.5877200825       -2.2086112859        1.6754071320
 H          1.4006390442       -3.6908072973        0.7322826023
 H         -1.1606109691       -4.2659067847        0.1194936330
 H         -3.5809402794       -4.6089992798        0.1993370710
 H         -5.0986915168       -2.6489632621        0.1650248637
 H         -4.1701716354       -0.3893843753        0.0806091632
 H         -2.9445855501        1.3100190676        2.0673679963
 H         -4.5283154564        3.2047778382        1.9393247320
 H         -4.9681137650        4.2977539053       -0.2270012825
 H         -3.8313118781        3.4982259397       -2.2645639709
 H         -2.2511329882        1.6013987657       -2.1316349089
 H         -0.5733751870        2.6136541965        0.2251055293
 H          1.7967162350        3.2021089482        0.2401182149
 H          4.0989369205        2.5714920595        0.1276106882
 H          5.2162089095       -1.5453583124       -0.1547720690
 H          2.9067662274       -2.2041397108       -0.1236677538
