  167
       -250.17055419
 C         -1.7981866730        6.4772557203       -0.5762159723
 C         -0.6844168751        6.0834696837        0.0493519648
 C          0.3887445199        5.2823955495       -0.4999218488
 C          0.4128470167        4.8398595502       -1.8307887185
 C          1.4582317112        4.0820980708       -2.3071764280
 C          2.5307236910        3.7399978489       -1.4832791334
 C          3.6712520187        2.9464712531       -2.0630907692
 O          4.5165060315        2.4578862068       -1.0435495175
 C          5.6236937343        1.7738080822       -1.4106790745
 C          6.0118957211        1.5311396214       -2.7246033971
 C          7.1824451921        0.8363827645       -3.0134203896
 C          8.0000170808        0.3343422645       -2.0228971180
 C          7.6092610711        0.5399564801       -0.7023810930
 C          6.4442811317        1.2751223842       -0.3873804711
 C          6.3642658788        1.3148717273        1.0445828305
 C          5.4761429229        1.8939518900        1.9403728886
 C          5.6930942984        1.7189536514        3.2919742726
 C          6.7787293004        0.9797336550        3.7564896008
 C          7.6796948046        0.3994792582        2.8853688856
 C          7.4710259296        0.5733532232        1.5233981265
 N          8.2167021769        0.1277769953        0.4592401800
 C          9.3059022660       -0.8054910332        0.5614400811
 C          8.7891105371       -2.2476278834        0.6829171299
 C          8.1454154264       -2.7072229386       -0.6230776903
 C          7.2705886557       -3.9471572831       -0.4667134312
 C          6.7188801144       -4.4373709980       -1.8076126044
 C          5.9084742714       -3.3793427413       -2.5563626623
 O          4.7946627713       -3.0107146163       -1.7674953737
 C          3.9371080759       -2.0810807741       -2.2460882475
 C          4.1315029170       -1.3363851581       -3.4103112555
 C          3.1809705249       -0.4194173038       -3.8474864282
 C          2.0059039898       -0.1946763568       -3.1539594659
 C          1.8098677325       -0.9172689289       -1.9840991560
 C          2.7569616105       -1.8610652281       -1.5254062641
 C          2.2069247382       -2.4447544278       -0.3352219008
 C          2.6525239855       -3.4038330062        0.5602585458
 C          1.8600559775       -3.7018251274        1.6533467723
 C          0.6481587865       -3.0459337156        1.8702789348
 C          0.1779236436       -2.0973804434        0.9865070343
 C          0.9517789373       -1.8200853782       -0.1325491191
 N          0.7247959004       -0.9145790934       -1.1388109635
 C         -0.4532161240       -0.1770257330       -1.3007962292
 C         -0.4165879811        1.1876942978       -1.4622019884
 C         -1.5997157997        1.9278982097       -1.5290485416
 C         -2.8258778137        1.2784359954       -1.4208231084
 C         -2.9053834640       -0.0977345785       -1.3310334985
 N         -4.1541373808       -0.7168337252       -1.3146503437
 C         -4.5671194676       -1.7570029334       -0.5120163946
 C         -3.8893875251       -2.4328171279        0.4932228866
 C         -4.5496771918       -3.4539532871        1.1478374369
 C         -5.8659855605       -3.7895479933        0.8332982529
 C         -6.5605746995       -3.1061965872       -0.1467037198
 C         -5.9146419607       -2.0804755875       -0.8235058160
 C         -6.3226372230       -1.1796422707       -1.8574694019
 C         -7.5303411631       -0.9819967835       -2.5380420154
 O         -8.5802437864       -1.7954009483       -2.2265452909
 C         -9.8826006953       -1.2475599122       -2.2906158607
 C        -10.0529078811       -0.1408942903       -1.2461240145
 C         -9.9493816972       -0.7136006164        0.1710207075
 C         -9.3125284426        0.2496351612        1.1735212715
 C         -7.7909301047        0.2710791776        1.0467308560
 C         -7.1441794533        1.0962160986        2.1633547520
 N         -5.7210847526        0.9091980445        2.2184394569
 C         -5.1006265793       -0.1564266317        2.8177398084
 C         -5.6511183863       -1.2497422223        3.4742735976
 C         -4.7853316869       -2.1573662034        4.0514006879
 C         -3.4018963339       -1.9940022656        3.9778032987
 C         -2.8444443896       -0.9161240291        3.3198316293
 C         -3.6964965735        0.0124778858        2.7367717317
 C         -3.4836716385        1.2527146072        2.0542769415
 C         -2.3242086878        1.9732126302        1.7382028259
 O         -1.1496191623        1.3883769982        2.0374988180
 C          0.0598085507        2.0901411125        1.7969576674
 C          1.1929671978        1.1448052809        2.0882653201
 C          2.1751143162        0.8804773343        1.1442885492
 C          3.1889418031       -0.0163087016        1.4107482651
 C          3.2554941485       -0.6739281960        2.6387155743
 C          4.3032640671       -1.6228400898        2.9750313229
 C          5.2756629551       -2.0435103810        2.1740744998
 C          2.2677344952       -0.3965759607        3.5858821702
 C          1.2513411867        0.4951531684        3.3157949609
 C         -2.4833813550        3.2324457598        1.1633158874
 C         -3.7483851498        3.7243777055        0.8654891768
 C         -4.9033475035        3.0131359809        1.1381582820
 C         -4.7610633185        1.7761872345        1.7567597740
 C         -7.5690289089        0.0147333234       -3.5108159467
 C         -6.4371022635        0.7598194024       -3.8266182632
 C         -5.2380986032        0.5819342330       -3.1588278776
 C         -5.2000478395       -0.3657846879       -2.1460946343
 C         -1.7030351648       -0.8826476436       -1.3154590765
 C         -1.7138038441       -2.2534259997       -1.5077398141
 N         -1.6983570564       -3.3956080598       -1.7188185323
 C          2.5237387373        4.1801610855       -0.1649015778
 C          1.4718504978        4.9291138941        0.3169358504
 H         -2.5317202976        7.0850447982       -0.0754432739
 H         -2.0163089737        6.2195314716       -1.5981131815
 H         -0.5404353737        6.3846348933        1.0808090135
 H         -0.3926749149        5.1043656385       -2.4974097548
 H          1.4557128292        3.7524589330       -3.3376660004
 H          4.2420168451        3.6015694259       -2.7416896631
 H          3.2753923152        2.1069012857       -2.6531457130
 H          5.4137403500        1.8801546537       -3.5492946365
 H          7.4521360510        0.6882179081       -4.0488482603
 H          8.9031172777       -0.1992421063       -2.2739854699
 H          4.6324593439        2.4558643908        1.5793254948
 H          5.0086226061        2.1558745536        4.0038631397
 H          6.9192851777        0.8583430367        4.8203039913
 H          8.5162793734       -0.1700625148        3.2610573532
 H          9.9020800661       -0.5471460051        1.4406690733
 H          9.9401357198       -0.7068758896       -0.3220034351
 H          9.6148419247       -2.9068556423        0.9562570584
 H          8.0492666481       -2.2750091497        1.4822692591
 H          8.9250033418       -2.8996788391       -1.3648147420
 H          7.5175218086       -1.8988359824       -0.9875309961
 H          7.8460112095       -4.7560654235       -0.0107797909
 H          6.4340259337       -3.7120777592        0.1890964447
 H          7.5405629567       -4.7455708962       -2.4574152912
 H          6.0801309531       -5.3045588379       -1.6327193738
 H          5.5628142597       -3.7955202463       -3.5137359714
 H          6.5330330591       -2.5043133702       -2.7663983950
 H          5.0232404993       -1.4654388228       -4.0006985282
 H          3.3686652190        0.1191349920       -4.7650416950
 H          1.2611293645        0.4954166241       -3.5171895989
 H          3.5993250549       -3.8942906881        0.4054158810
 H          2.1898665005       -4.4459897754        2.3632988137
 H          0.0684875203       -3.2861398584        2.7493600370
 H         -0.7460523555       -1.5734505235        1.1683049432
 H          0.5328425697        1.6993712984       -1.4920323127
 H         -1.5576697342        3.0001383111       -1.6095853526
 H         -3.7311642704        1.8615423406       -1.3676316712
 H         -2.8785316772       -2.1838515839        0.7623359220
 H         -4.0341837631       -4.0046940046        1.9181712546
 H         -6.3467615878       -4.5972996893        1.3654582222
 H         -7.5764948802       -3.3646229266       -0.4001908839
 H        -10.1142560088       -0.8754539441       -3.2951943034
 H        -10.5484361473       -2.0867343967       -2.0742139134
 H         -9.2623137721        0.5924827186       -1.4063860420
 H        -11.0124949088        0.3551000281       -1.3959818112
 H         -9.3355947131       -1.6135090222        0.1349402813
 H        -10.9444147310       -0.9989455964        0.5167072266
 H         -9.5722108652       -0.0751395278        2.1838863819
 H         -9.7187576135        1.2541670364        1.0371680644
 H         -7.4138898788       -0.7500036599        1.1109844646
 H         -7.4912207372        0.6725781246        0.0789372857
 H         -7.3537781393        2.1581680623        2.0228191616
 H         -7.5669788347        0.7916617889        3.1262461830
 H         -6.7185062569       -1.3925500361        3.5401926329
 H         -5.1880602899       -3.0120459852        4.5745179161
 H         -2.7611035304       -2.7264320339        4.4468583607
 H         -1.7764655554       -0.7807112509        3.2627340556
 H          0.1112963171        2.9669961914        2.4606246138
 H          0.1072718355        2.4345682016        0.7601025671
 H          2.1544334659        1.3911891287        0.1945880351
 H          3.9351484994       -0.2022889205        0.6567916936
 H          4.2535913849       -2.0105098422        3.9857208114
 H          5.3747354253       -1.7015959315        1.1606067158
 H          6.0037162862       -2.7584688916        2.5204700595
 H          2.3005049857       -0.8923493572        4.5462405928
 H          0.4895458398        0.6919238172        4.0561639751
 H         -1.6304673939        3.8463530959        0.9312507480
 H         -3.8197802722        4.6981794762        0.4043797975
 H         -5.8714817892        3.4201372879        0.8902218688
 H         -8.4764770202        0.2044659279       -4.0616991333
 H         -6.5009791064        1.4926198048       -4.6164053544
 H         -4.3659051182        1.1524623264       -3.4307384189
 H          3.3519139864        3.9302719288        0.4774320242
 H          1.4856764567        5.2622222264        1.3454910174
