62
 energy: -93.450946091075 gnorm: 0.000020912850 xtb: 6.7.1 (edcfbbe)
C            2.16218139815226       -4.45995282388897        1.89627045432813
C            1.02761308610519       -4.56170232474114        1.15136736765130
B            0.42930500138696       -3.30646799345556        0.53686674874180
C            1.17976208425462       -1.99586260507370        0.81795175627346
C            0.69675614534532       -0.81006481701979        0.26992661285632
C           -0.63579380657240       -0.75025847306800       -0.25696970618770
C           -1.33180541228793        0.45152091725177       -0.09976564079836
C           -2.74907481720296        0.50205448769913       -0.05882918793495
C           -3.44725811956212        1.63415262766782        0.25850299406971
C           -4.91116234812306        1.64648876416662        0.30006908039410
C           -5.64830234494207        0.91300995152644       -0.62946520942653
C           -7.02948023849868        0.92731738708626       -0.60018981211920
C           -7.69901082112456        1.66829649017241        0.35979875683998
C           -6.97729075826721        2.39584442136561        1.29135491166503
C           -5.59561254006650        2.38935798171714        1.26097731813748
C           -2.69337631141363        2.79452185923853        0.59822974672548
C           -1.34306992692632        2.74054783092005        0.58017050350152
N           -0.65205354044923        1.62923796914191        0.20064658331675
C            0.73620371399386        1.65117126355861        0.08757479672423
C            1.44230594619631        2.83670359103830       -0.12383828565325
C            2.81358158788322        2.82415683920171       -0.23907899886515
C            3.52495714041706        1.62176648489847       -0.19332458672635
C            4.98548655061061        1.60197699445123       -0.34892678145896
C            5.62085975781230        2.44883314997807       -1.25453373850432
C            6.99600439851564        2.42633174525582       -1.39317641728963
C            7.75970667024188        1.56209380347452       -0.62666615500827
C            7.13862105781622        0.71564330387067        0.27651385773271
C            5.76342223297008        0.73234868497078        0.41310047396155
C            2.81856695440144        0.44257431766649       -0.01874560673769
C            1.43365512957859        0.43100193646995        0.15953052295259
C           -1.24482617612882       -1.93967665744568       -0.81984727812935
C           -2.21796728781222       -1.83477811519233       -1.82331757794365
C           -2.79118856854741       -2.95979439089840       -2.37258592393016
C           -2.39634340596017       -4.22055230784094       -1.93952054481338
C           -1.38995567277509       -4.33356964832307       -1.00499488955076
C           -0.77500682359250       -3.21500843911292       -0.43424193053527
C            2.32571527857459       -2.03581018931013        1.65824259311347
C            2.78371190024737       -3.21318347337494        2.16580657184449
H            2.61686617194279       -5.33828612195139        2.34363108094981
H            0.59777989555817       -5.55169639462019        1.04171503798410
H           -3.27543825549862       -0.42631193813307       -0.20541082857861
H           -5.13349542898020        0.34610791132360       -1.39085261113910
H           -7.58710656670245        0.35951295266368       -1.33031404586906
H           -8.77843208703789        1.67795354275573        0.38251516607955
H           -7.49392117110453        2.96995747543713        2.04651301990753
H           -5.04288577879125        2.94238096214058        2.00620713144482
H           -3.19066618574063        3.70541229355242        0.88542837725377
H           -0.74956441117548        3.58479379056132        0.89091639600209
H            0.92091416236128        3.77495542058975       -0.23657711644438
H            3.34222750887993        3.75469160707189       -0.37969100877314
H            5.03089024596764        3.11194088864455       -1.87062483375247
H            7.47443693580636        3.08437617619308       -2.10409011844207
H            8.83419758372651        1.54744089157136       -0.73397372874385
H            7.72912120957804        0.04015719497527        0.87805920287380
H            5.28738138949837        0.07950735743591        1.12972800110423
H            3.33650861506661       -0.50157342932373       -0.07657047166300
H           -2.48343106842704       -0.86144425940115       -2.21507661752602
H           -3.53378999902696       -2.86193723131504       -3.15245486040819
H           -2.85647979112867       -5.10308695766444       -2.36152314414119
H           -1.05061400159886       -5.31509928136108       -0.70749767287133
H            2.79957347864112       -1.11229382049112        1.97231735995796
H            3.64136072036793       -3.20839929255836        2.82696554322091
