  62
        -93.39991476
 C          2.1653684908       -4.4984144444        1.8680174782
 C          1.0698735706       -4.6121741439        1.0632316201
 B          0.4570203192       -3.3463350513        0.4630048081
 C          1.2143488012       -2.0210927464        0.7319912448
 C          0.7022457827       -0.8021473107        0.2160780965
 C         -0.6298036736       -0.7615387885       -0.2281851651
 C         -1.3500432569        0.4647760116       -0.0803837437
 C         -2.7314640669        0.5008487087       -0.0062425427
 C         -3.4664374082        1.6614060616        0.2672780146
 C         -4.9119351475        1.6641585957        0.3092928012
 C         -5.6220394631        2.6059595400        1.0682760908
 C         -7.0006228362        2.6059158445        1.0949016668
 C         -7.7189807024        1.6713562975        0.3648738804
 C         -7.0350484420        0.7322536704       -0.3923517798
 C         -5.6568493443        0.7255304630       -0.4210844740
 C         -2.6884226058        2.8190954555        0.5447991081
 C         -1.3390238168        2.7790592349        0.5051124984
 N         -0.6287090038        1.6437484546        0.1725318272
 C          0.7483759446        1.6626866678        0.0568700993
 C          1.4685103407        2.8457217912       -0.1352647554
 C          2.8446360072        2.8252315805       -0.2426607890
 C          3.5526640248        1.6274818846       -0.2021242803
 C          5.0118234153        1.6008558092       -0.3341443792
 C          5.7761849349        0.6906200698        0.3961412775
 C          7.1526584451        0.6705557734        0.2798051503
 C          7.7943534155        1.5549957357       -0.5713990713
 C          7.0468217244        2.4603351235       -1.3062506186
 C          5.6705283100        2.4848975545       -1.1886913482
 C          2.8297663743        0.4433734207       -0.0403377822
 C          1.4517259862        0.4413739131        0.1288322295
 C         -1.2692347120       -1.9500321507       -0.7711291189
 C         -2.2476719365       -1.8267856284       -1.7625537187
 C         -2.8493463084       -2.9436233021       -2.3127595009
 C         -2.4717110582       -4.2107497167       -1.8971500759
 C         -1.4477945802       -4.3452511765       -0.9778518792
 C         -0.8107143302       -3.2385561813       -0.4131685724
 C          2.2940626323       -2.0541414147        1.6247628343
 C          2.7472889302       -3.2432444944        2.1562799969
 H          2.6157610583       -5.3703440983        2.3278353768
 H          0.6605489672       -5.6047524212        0.9197122555
 H         -3.2558528876       -0.4365565061       -0.0866679450
 H         -5.0859021527        3.3267148663        1.6675490993
 H         -7.5234046479        3.3373879278        1.6948061151
 H         -8.7983487408        1.6738690116        0.3870216715
 H         -7.5851518638        0.0022619948       -0.9691108142
 H         -5.1469863832        0.0017731902       -1.0394786177
 H         -3.1682279389        3.7498396082        0.7991052474
 H         -0.7518993054        3.6411109868        0.7703814416
 H          0.9606402831        3.7921809958       -0.2292983009
 H          3.3743232197        3.7587815611       -0.3583295761
 H          5.2877983630        0.0085862014        1.0766745412
 H          7.7297359734       -0.0364151483        0.8584646808
 H          8.8703956162        1.5386508827       -0.6617981125
 H          7.5402985775        3.1492975868       -1.9764093282
 H          5.0956540077        3.1805206265       -1.7825411363
 H          3.3488152510       -0.5002206364       -0.0975179501
 H         -2.5058988350       -0.8490102983       -2.1438965713
 H         -3.6095882261       -2.8234799151       -3.0711451081
 H         -2.9572136422       -5.0840446449       -2.3080916756
 H         -1.1223746513       -5.3337019874       -0.6885402358
 H          2.7658330369       -1.1351769539        1.9496587057
 H          3.5914237416       -3.2194628688        2.8332681703
