62
 energy: -93.443988360909 gnorm: 0.000050166926 xtb: 6.7.1 (edcfbbe)
C            2.90000795437964       -4.53823208949579       -0.24147168032134
C            1.59914374466915       -4.55440429781121       -0.64308679274880
B            0.69762406075246       -3.38234698162430       -0.28986093976601
C            1.39177389714207       -2.19308632803128        0.38366649738736
C            0.70465322950283       -0.97440764056242        0.41082170680500
C           -0.72221933096854       -0.92960501340943        0.30941438196241
C           -1.36932922102133        0.30559271926273        0.39214342948740
C           -2.71515410444167        0.51921375075459       -0.01323753337442
C           -3.42384314483803        1.63439004418080        0.33462059275902
C           -4.80573397591239        1.84871774684613       -0.09807470284716
C           -5.68313099578963        0.77379877905607       -0.24123722450200
C           -6.98993171640221        0.98229842013569       -0.63854435126555
C           -7.44279092025483        2.26391765176017       -0.90522760488842
C           -6.57905711845946        3.33829823908068       -0.77127810639134
C           -5.27320915194041        3.13470570731880       -0.36771437169288
C           -2.75728992539107        2.59200170667911        1.15673955243780
C           -1.42721641852428        2.47290598555962        1.36143112634518
N           -0.69776041292445        1.42340214086728        0.88018148428871
C            0.68725030945488        1.48011035906926        0.76380464800123
C            1.38489380392879        2.68671046642806        0.86853936990328
C            2.73412096571770        2.74648598481083        0.60721278072356
C            3.42264056869816        1.61750748851415        0.15477270066164
C            4.84225672117963        1.69288227506008       -0.21425578851952
C            5.70617108659476        0.64068369935468        0.08438484041565
C            7.04437367770705        0.71168386053070       -0.25360851224757
C            7.54212258875443        1.83092958050526       -0.89968596509903
C            6.69183003157054        2.88010489741771       -1.20614074745172
C            5.35401736125306        2.81378971387193       -0.86473814411418
C            2.72851128432490        0.42364242198541        0.05175135540332
C            1.38622831643582        0.30446338081425        0.42448664094812
C           -1.48644801071053       -2.15727443341085        0.14054157850666
C           -2.82513716473546       -2.25389255553781        0.54525449299123
C           -3.56817789937607       -3.38462675222688        0.28533155675182
C           -2.98349283206803       -4.46406274250485       -0.36580929087964
C           -1.63301316316507       -4.43307640858058       -0.63787967858823
C           -0.84318134436139       -3.31283081895557       -0.36066485931489
C            2.73054622949723       -2.35235802705468        0.82412071149420
C            3.44097765377827       -3.47704707016499        0.52804884576159
H            3.55920016567367       -5.37403744041158       -0.45346030178463
H            1.25502133783093       -5.44242733449569       -1.16235136012211
H           -3.15218809737955       -0.22258311639461       -0.66185380565814
H           -5.34594066930498       -0.22718025967992       -0.01788442903288
H           -7.65996760767814        0.14113116095022       -0.73812982130843
H           -8.46428663521991        2.42484582640693       -1.21576436180030
H           -6.92497167392388        4.33945813185693       -0.98301722474673
H           -4.60142935597494        3.97668722338464       -0.28483367760600
H           -3.30006563194102        3.41534955389246        1.58921680303668
H           -0.88494063042257        3.20997401997441        1.93022513081390
H            0.87326055851632        3.60256057347656        1.11845937300814
H            3.25484723572664        3.68520350334424        0.72015113763228
H            5.32967993958772       -0.22957322313385        0.60083890491023
H            7.70287518223539       -0.10940249472697       -0.01072158714187
H            8.58769354764868        1.88503820332954       -1.16452208486739
H            7.07291052814165        3.75323926967235       -1.71582674348450
H            4.69377785906921        3.62831957865699       -1.12560354624516
H            3.22018052863600       -0.43677508315843       -0.37239177131094
H           -3.27351065279302       -1.45718701770373        1.12354896157081
H           -4.60081311283784       -3.43599549335151        0.60224703418609
H           -3.57334938993152       -5.33941553538225       -0.59884536221860
H           -1.15504985343219       -5.30886449913856       -1.05197555927895
H            3.17302313090706       -1.60463780781986        1.47473171649659
H            4.45102266280406       -3.58471360004897        0.90300657589900
