  34
        -60.18734821
 C         -3.5125463839       -3.2643940158        0.3919230040
 C         -2.1472951118       -3.4986360819        0.3051867329
 C         -1.2642886476       -2.4512740925        0.1366042079
 C         -1.7268113384       -1.1369732078        0.0382994144
 C         -3.1076352269       -0.9081689496        0.1868649295
 C         -3.9887423421       -1.9675732936        0.3482493244
 O         -3.6359800079        0.3461521103        0.2090653780
 C         -2.7876138487        1.4000400142        0.0567475848
 C         -3.3453280137        2.6697502438        0.0736686863
 C         -2.5439149399        3.7802032982       -0.1190072483
 C         -1.1880876620        3.6169514873       -0.3632781384
 C         -0.6245497869        2.3564448549       -0.3854563750
 C         -1.4047568018        1.2243561159       -0.1364030846
 N         -0.8705910193       -0.0571178892       -0.1347819915
 C          0.5084199800       -0.2440004656       -0.3059025735
 C          0.9867906716       -1.0696585586       -1.3185485909
 C          2.3452126355       -1.2627542774       -1.5034284954
 C          3.2527297794       -0.6457475743       -0.6239943542
 N          4.5667306813       -0.7680223611       -0.6257067143
 S          5.1728656580        0.1898392264        0.6136358783
 N          3.7359396277        0.7370961573        1.1836944893
 C          2.7539637220        0.2149261799        0.4312282012
 C          1.3960269218        0.4161973651        0.5869527085
 H         -4.2004634908       -4.0858527514        0.5122182409
 H         -1.7642416303       -4.5045491655        0.3745595179
 H         -0.2041999881       -2.6405353412        0.0921279484
 H         -5.0391952290       -1.7452488626        0.4459527908
 H         -4.4080532359        2.7576007936        0.2324583747
 H         -2.9800419419        4.7661519982       -0.1017671488
 H         -0.5633447790        4.4761367442       -0.5497243006
 H          0.4247908845        2.2378283979       -0.6001806992
 H          0.2849707701       -1.5267584868       -2.0005904386
 H          2.7172902326       -1.8508234028       -2.3257274031
 H          1.0142805609        0.9848593210        1.4189462129
