  34
  -60.0187072567000       0.548984676930252      !
 C         -3.5125463839       -3.2643940158        0.3919230040
 C         -2.1472951118       -3.4986360819        0.3051867329
 C         -1.2642886476       -2.4512740925        0.1366042079
 C         -1.7268113384       -1.1369732078        0.0382994144
 C         -3.1076352269       -0.9081689496        0.1868649295
 C         -3.9887423421       -1.9675732936        0.3482493244
 O         -3.6359800079        0.3461521103        0.2090653780
 C         -2.7876138487        1.4000400142        0.0567475848
 C         -3.3453280137        2.6697502438        0.0736686863
 C         -2.5439149399        3.7802032982       -0.1190072483
 C         -1.1880876620        3.6169514873       -0.3632781384
 C         -0.6245497869        2.3564448549       -0.3854563750
 C         -1.4047568018        1.2243561159       -0.1364030846
 N         -0.8705910193       -0.0571178892       -0.1347819915
 C          0.5084199800       -0.2440004656       -0.3059025735
 C          0.9867906716       -1.0696585586       -1.3185485909
 C          2.3452126355       -1.2627542774       -1.5034284954
 C          3.2527297794       -0.6457475743       -0.6239943542
 N          4.5667306813       -0.7680223611       -0.6257067143
 S          5.1728656580        0.1898392264        0.6136358783
 N          3.7359396277        0.7370961573        1.1836944893
 C          2.7539637220        0.2149261799        0.4312282012
 C          1.3960269218        0.4161973651        0.5869527085
 H         -4.2004634908       -4.0858527514        0.5122182409
 H         -1.7642416303       -4.5045491655        0.3745595179
 H         -0.2041999881       -2.6405353412        0.0921279484
 H         -5.0391952290       -1.7452488626        0.4459527908
 H         -4.4080532359        2.7576007936        0.2324583747
 H         -2.9800419419        4.7661519982       -0.1017671488
 H         -0.5633447790        4.4761367442       -0.5497243006
 H          0.4247908845        2.2378283979       -0.6001806992
 H          0.2849707701       -1.5267584868       -2.0005904386
 H          2.7172902326       -1.8508234028       -2.3257274031
 H          1.0142805609        0.9848593210        1.4189462129
  34
  -60.0185214977000       0.451015323069748      !
 C         -3.2077841302       -3.1711954596        0.8653686994
 C         -1.8352606984       -3.3140713585        0.7234185606
 C         -1.0451657894       -2.2296721566        0.3956016337
 C         -1.6098416382       -0.9631238921        0.2280084391
 C         -3.0086144204       -0.8409665096        0.3294202260
 C         -3.7945588069       -1.9374089506        0.6519535005
 O         -3.6539826852        0.3341102466        0.0904475127
 C         -2.9003038417        1.4289324307       -0.2024139534
 C         -3.5702878113        2.6262937183       -0.4076706945
 C         -2.8574691171        3.7854413549       -0.6505021379
 C         -1.4695262545        3.7525111629       -0.6547504157
 C         -0.7956507976        2.5634587291       -0.4650345613
 C         -1.4962031931        1.3700833195       -0.2735313414
 N         -0.8504122232        0.1538300447       -0.0944653687
 C          0.5333615849        0.0483115280       -0.2961206334
 C          1.0886344810        0.4712616611       -1.5008716797
 C          2.4489313138        0.3788378928       -1.7353165422
 C          3.2884159412       -0.1098510378       -0.7184507587
 N          4.6039419721       -0.2052448755       -0.7538329004
 S          5.1098007009       -0.8652752485        0.7058862732
 N          3.6331189096       -0.9917641223        1.4065821487
 C          2.7104592043       -0.5485125162        0.5375275389
 C          1.3465898058       -0.4693751512        0.7470661379
 H         -3.8216981596       -4.0206713255        1.1186844459
 H         -1.3742479465       -4.2801501953        0.8558176658
 H          0.0162111262       -2.3573864922        0.2597862417
 H         -4.8611293119       -1.7964106361        0.7228217974
 H         -4.6474666897        2.6221112235       -0.3621411672
 H         -3.3810317898        4.7137197128       -0.8140271273
 H         -0.9058981738        4.6601124338       -0.8028120824
 H          0.2821435748        2.5464149950       -0.4552172410
 H          0.4350395560        0.8353957108       -2.2799723222
 H          2.8689408948        0.6455575763       -2.6907061890
 H          0.9232224254       -0.7026094808        1.7102122148
