  54
  -85.1490810300000       0.879384288838998      !
 C         -0.4763780470        2.6594796952        1.0774215352
 C          0.3180171037        0.2258777842        0.0127977444
 C         -2.4104649206        2.9580291183       -0.7925987678
 C          1.5114618500       -0.2573979762       -0.7155214279
 C          2.5871061541        1.3077222936        0.2803672591
 N          3.9976461942        0.8675972372        0.2820247766
 C          4.1247238090       -1.0765436291       -0.7114932642
 C          3.0373732283       -2.0723547863       -0.9685187761
 C          1.7573960492       -1.6752107728       -0.9446109731
 N          0.6340770552       -2.4724000922       -0.9638882061
 C         -0.6360031167       -2.0596595897       -0.5978963779
 C         -1.6943974903       -2.8305649866       -0.8815202330
 C         -3.4379905805       -2.1296339687        0.8260194664
 N         -3.5694114152       -0.8511681097        1.5053819315
 C         -2.5225911888        0.1443229450        1.1440269746
 C         -0.8061845418       -0.7643203689        0.1413596743
 O         -1.9122844358        4.2785137510       -0.8234360272
 S         -0.8691000411        1.7166119278       -0.5262343025
 O          0.2033629237        3.8194194747        0.8316903133
 C          1.6110165483        0.2176522509        0.7659811407
 C          2.0637596335       -0.6707016503        1.8330842833
 C          3.3435915511       -1.0374094346        1.8099616890
 C          4.2571413194       -0.5208929362        0.7569601534
 C          3.8817295471        0.3905366311       -1.1193195038
 C          2.4269910075        0.8470516035       -1.1830456570
 C         -1.9715281392        0.2063006597       -0.2856616296
 C         -1.4014382651       -0.8008817807        1.5701143445
 C         -2.4972777049       -1.8062565876        1.9109054948
 C         -3.1228830172       -2.4264806257       -0.6317586213
 C         -3.4348484832       -1.2763124095       -1.5543410642
 C         -2.8855594798       -0.0798562064       -1.4053992086
 H          0.1567108732        2.0031448837        1.6702527321
 H         -0.4091772306        4.4282181225        0.3785869357
 H         -1.4393793631        2.8274170949        1.5659762351
 H         -1.4165321719        4.3898598653       -1.6422868997
 H         -2.9004760216        2.7139634652       -1.7357626175
 H         -3.1332206552        2.9001636899        0.0186617024
 H          2.4608563578        2.3259405600        0.6429394746
 H          5.0790094119       -1.4609989433       -1.0743015074
 H          3.3158852933       -3.1052733705       -1.1092905607
 H          0.7343403732       -3.4334587485       -1.2536113439
 H         -1.5417765973       -3.7625591456       -1.4067326047
 H         -4.2517530999       -2.7536702734        1.1919083971
 H         -2.7516021219        1.0806585119        1.6449468340
 H          1.3843762593       -1.0147557194        2.5988967311
 H          3.7694221666       -1.6707076006        2.5736029343
 H          5.2938133447       -0.5715477780        1.1032625771
 H          4.5705346668        0.8234809378       -1.8429365717
 H          2.1024604725        1.4708100897       -2.0104148139
 H         -0.7308638055       -0.5689924420        2.3903634629
 H         -2.5249931877       -2.3239494108        2.8589146817
 H         -3.7593232617       -3.2700839546       -0.9107726408
 H         -4.0863413761       -1.4774041438       -2.3912048798
 H         -3.0791983741        0.7073962985       -2.1147446813
  54
  -85.1469671000000       9.390392353700594E-002 !
 C         -0.5343060304        2.2010948612       -1.6667156895
 C          0.3257903450        0.2761942680        0.2279074978
 C         -2.4475951014        3.1246279914        0.0300079914
 C          1.5328903554       -0.0864080221       -0.5484473807
 C          2.6171208276        1.2426351779        0.7425405868
 N          4.0201560695        0.7769597990        0.6928537841
 C          4.1319961096       -0.9556445113       -0.6397825840
 C          3.0302893534       -1.8607565927       -1.0966596693
 C          1.7585865185       -1.4436294325       -1.0271359346
 N          0.6168816508       -2.1923831600       -1.2286001290
 C         -0.6424677107       -1.8673963040       -0.7489724857
 C         -1.7078076735       -2.5810311991       -1.1363272549
 C         -3.3704299367       -2.2594099278        0.7568989182
 N         -3.4846943179       -1.1396782282        1.6790847608
 C         -2.4716217053       -0.0695282013        1.4658477843
 C         -0.7940046640       -0.7335584928        0.2228165622
 O         -1.8039010591        4.3816096511       -0.0390697865
 S         -0.9388786335        1.8208644853        0.1227178067
 O          0.1117310815        3.3986325573       -1.8025184727
 C          1.6027037924        0.1135055196        0.9977332420
 C          2.0212864739       -0.9641244101        1.8936953037
 C          3.2924914677       -1.3538831277        1.8289293970
 C          4.2425778209       -0.6804946033        0.9071135501
 C          3.9289393201        0.5664780270       -0.7743964373
 C          2.4874163550        1.0646200442       -0.7829421197
 C         -1.9906644999        0.2736063644        0.0480204734
 C         -1.3187709376       -1.0529861198        1.6466375635
 C         -2.3809682763       -2.1305326093        1.8386567420
 C         -3.1260544180       -2.2614573680       -0.7459647225
 C         -3.5220874723       -0.9593252056       -1.3914518338
 C         -2.9795161020        0.1968034052       -1.0394020783
 H         -1.4951934188        2.1702606620       -2.1885607507
 H         -0.4702590165        4.0989109887       -1.4499468864
 H          0.1117772847        1.4006685553       -2.0221045991
 H         -1.2850744360        4.4980304097        0.7649821247
 H         -3.1043624306        3.0737061132       -0.8342256059
 H         -3.0356357648        3.0210147965        0.9449028642
 H          2.5026606289        2.1778052272        1.2877715633
 H          5.0858413524       -1.2906915039       -1.0497438712
 H          3.2914025073       -2.8565412190       -1.4204671718
 H          0.7138834190       -3.0973181800       -1.6639804157
 H         -1.5716797328       -3.3991211857       -1.8292161950
 H         -4.1569577300       -2.9604136943        1.0312424732
 H         -2.6712007053        0.7596731147        2.1394336669
 H          1.3296137383       -1.4268574380        2.5802764630
 H          3.6848443169       -2.1247399712        2.4751348007
 H          5.2697441988       -0.8184856878        1.2578946734
 H          4.6433444065        1.1078668111       -1.3924925568
 H          2.2217495745        1.8530216532       -1.4794537125
 H         -0.6198979746       -0.9564352082        2.4673995472
 H         -2.3523226658       -2.8242080713        2.6664970823
 H         -3.7641371506       -3.0501399501       -1.1527601919
 H         -4.2511286767       -0.9999939093       -2.1865718105
 H         -3.2825339106        1.1100888313       -1.5246584590
  54
  -85.1457790700000       2.671178762399631E-002 !
 C         -0.4354496406        2.4754104419       -1.5004349722
 C          0.3708088391        0.3760169932        0.1941452281
 C         -2.4908384508        3.1555247004        0.2202413764
 C          1.5764502488       -0.0560695259       -0.5683516799
 C          2.6903895747        1.3115476969        0.6543419361
 N          4.0829554762        0.8123442190        0.6448870422
 C          4.1630483613       -0.9985678058       -0.5834988941
 C          3.0405336876       -1.8934026584       -1.0073849398
 C          1.7795682876       -1.4395651936       -0.9836396979
 N          0.6227123430       -2.1569057956       -1.1939549123
 C         -0.6355635885       -1.7766521578       -0.7438587279
 C         -1.7072894502       -2.4716632634       -1.1441342743
 C         -3.3638450533       -2.1529426145        0.7288124380
 N         -3.4678215470       -1.0556194715        1.6739471474
 C         -2.4568274870        0.0145220805        1.4656868706
 C         -0.7633534928       -0.6271721002        0.2179092010
 O         -1.9639526435        4.4519509548        0.1666852268
 S         -0.9531722096        1.9395977038        0.2160677151
 O         -0.4775261567        1.4562990589       -2.4111998744
 C          1.6475664077        0.2182340095        0.9651953303
 C          2.0415128948       -0.8107984293        1.9268311948
 C          3.3042187861       -1.2299493065        1.8999168072
 C          4.2725621341       -0.6357655323        0.9451766817
 C          3.9990042775        0.5165344659       -0.8073295987
 C          2.5698150505        1.0465780199       -0.8605206382
 C         -1.9651788367        0.3774402975        0.0569060101
 C         -1.2990089335       -0.9644891416        1.6355772316
 C         -2.3615391432       -2.0483755948        1.8041107990
 C         -3.1244859808       -2.1285860566       -0.7738382547
 C         -3.4730820749       -0.8173249218       -1.4285108021
 C         -2.9142785474        0.3273454771       -1.0668184463
 H          0.5648540625        2.8939622647       -1.3521715123
 H          0.1528052390        0.7634518903       -2.1615628904
 H         -1.1269708689        3.2544643608       -1.8142192558
 H         -1.4061692536        4.5911008648        0.9396566314
 H         -3.1610566445        3.0553632905       -0.6283448189
 H         -3.0419223039        2.9722512688        1.1474365857
 H          2.5923877882        2.2787454382        1.1450272831
 H          5.1101968169       -1.3811690340       -0.9661401194
 H          3.2769667106       -2.9091464332       -1.2841418786
 H          0.7015583339       -3.0854337870       -1.5801368043
 H         -1.5707421235       -3.3018731011       -1.8224624714
 H         -4.1443689752       -2.8637216839        0.9953307606
 H         -2.6533098511        0.8360928916        2.1493002602
 H          1.3372752452       -1.2084383369        2.6401115352
 H          3.6759311858       -1.9642135829        2.5984479502
 H          5.2953250100       -0.7736694639        1.3078420984
 H          4.7297469957        1.0048342777       -1.4504612215
 H          2.3465512001        1.7861147753       -1.6255302019
 H         -0.6097342908       -0.8819346173        2.4658570883
 H         -2.3278135134       -2.7606667507        2.6159579800
 H         -3.7735078647       -2.9009075488       -1.1944146811
 H         -4.1608699971       -0.8489802811       -2.2596016808
 H         -3.1340567113        1.2386463677       -1.5968958928
