63
 energy: -106.249327026722 gnorm: 0.000057199896 xtb: 6.7.1 (edcfbbe)
C            7.34422996489908       -1.06895224227418       -1.42064430274192
C            7.08418099684241       -0.02754543495466       -0.33144557503450
N            5.84054804459292        0.68687422016045       -0.54222091649805
C            5.95078638654133        1.92490956165933       -1.28964806066389
C            6.17650818526491        3.13345332976748       -0.37995745153933
C            4.65999148861963        0.21649909084454       -0.09955405924292
C            3.46935711624143        0.98924147561591       -0.18239135215126
C            2.25780237160380        0.49353632974548        0.19907661556581
C            2.11589264175221       -0.81410549921536        0.71071456426904
C            3.31760599814018       -1.52603652598876        0.92750587380324
C            4.53971157966647       -1.04712170273238        0.50912497289560
O            3.32426063972252       -2.74241657766955        1.53997745616777
C            2.21866176433664       -3.25956781996514        2.15039062787952
O            2.37677316571342       -4.28056117979803        2.78329837495070
C            0.96210289344536       -2.56528799624726        1.92569078716538
C           -0.20952117640100       -3.06866283696929        2.61331540109395
O           -0.25300685561592       -3.98419439291474        3.40358482546910
O           -1.38623461852793       -2.39201716115580        2.40202249633712
C           -1.51736129047765       -1.48269166865450        1.40440513439344
C           -2.81064125256851       -1.06258929713100        1.11092985669463
C           -3.02960019023613       -0.19875841907256        0.04905466457965
N           -4.33877209433315        0.24238417542304       -0.27851629269810
C           -5.23267255285492       -0.67145777799623       -0.84124283056113
C           -4.86848550874377       -2.00923730815195       -1.00581508032100
C           -5.73878433316724       -2.93646143633228       -1.55150890265998
C           -7.00723257987355       -2.55729330261727       -1.94872772771032
C           -7.37709034253357       -1.23008298092937       -1.82393969261674
C           -6.50049417459748       -0.29596526416416       -1.29543291605686
S           -7.05183817024765        1.38838585894587       -1.31662807955945
C           -5.88789764343223        2.14557393327349       -0.21633092354891
C           -6.20559781454981        3.41275321890201        0.24630923570617
C           -5.34065614275233        4.09920231703752        1.07984219545690
C           -4.15823816063516        3.49380618689816        1.46293670499812
C           -3.84802377378029        2.22097244585130        1.01786714362244
C           -4.69640180393297        1.52053508147993        0.15761544998435
C           -1.95264657615115        0.21884833374513       -0.73463099880543
C           -0.67139468602111       -0.17585524963299       -0.42407556924797
C           -0.41463387613202       -0.99012811246209        0.68764193131836
C            0.89942782654049       -1.43901880522621        1.10098698806969
H            8.28955033256799       -1.57057422204181       -1.23244241986982
H            6.55289308581751       -1.81363826151371       -1.43993063085137
H            7.39252565957704       -0.59543603667633       -2.39825044907583
H            7.07529580341965       -0.50228683864361        0.65160439485453
H            7.89319081450320        0.70611377526119       -0.33191759208486
H            5.05707900170121        2.06828860029937       -1.89929413286687
H            6.79761340683279        1.82526645270057       -1.97254076256604
H            7.09416830668598        3.01569763946637        0.19104567882761
H            5.35419465986384        3.25186688866218        0.32057880157936
H            6.25760405369737        4.03546370515178       -0.98036893556159
H            3.51175201114521        2.00821069087029       -0.52563491223280
H            1.39762834442698        1.14134844646989        0.17236341937537
H            5.38777196055970       -1.68630401858954        0.68065949333961
H           -3.62799713128607       -1.43910290311807        1.70582078324153
H           -3.88327047984419       -2.33382017614082       -0.71226222261120
H           -5.41418396351914       -3.96008500363858       -1.66141783077585
H           -7.69587308231661       -3.27520168875910       -2.36538580826070
H           -8.34964762612923       -0.89489673305730       -2.15208482652146
H           -7.13847008621754        3.85592947408177       -0.06829837168976
H           -5.59350820358637        5.08956179305450        1.42417881713442
H           -3.47042978919655        4.00488136396212        2.11918461850391
H           -2.92913057569587        1.76063036983286        1.34448941191478
H           -2.13789223858732        0.84525598656933       -1.59322884128163
H            0.13851828923804        0.10186512872912       -1.07644825127022
