55
 energy: -92.529236473540 gnorm: 0.000132645337 xtb: 6.7.1 (edcfbbe)
O            6.83472597995635       -0.77250516219260       -0.46720216638440
C            5.74403178970462       -0.28973713186965       -0.21945391238728
C            5.57381810227903        1.15712918544631        0.04979580817732
C            6.70075925919996        1.97445710379715        0.03747726455322
C            6.59219683195245        3.33095448438822        0.28374340049557
C            5.34995103297123        3.89053833383983        0.54447655040918
C            4.22258972552506        3.09043280070642        0.55783901147017
C            4.31933965523559        1.72241090558848        0.31341929145232
C            3.08676923725226        0.90863893392943        0.33639578616175
O            1.98719209800880        1.39934970588650        0.51538677992012
C            3.26620988441715       -0.54382548835804        0.11392297457853
C            2.14029368150047       -1.35334790003889        0.17219627179067
C            2.23772766152380       -2.71659916371407       -0.06845390258977
S            0.84915980038788       -3.79936614243702       -0.01098729118886
C           -0.52294432917827       -2.66140177523713       -0.04323040119511
C           -1.46383836070020       -2.70362383152192        0.97424861510966
C           -2.52448355070731       -1.81895414413656        0.96504251087400
C           -2.64945361785548       -0.88605369365751       -0.06262012536009
N           -3.70099102131008        0.03170082605800       -0.06142466317350
C           -5.04010449773994       -0.26405660543154        0.11472009784420
C           -5.65985461833295       -1.49390157901799        0.27994737380084
C           -7.03639226490029       -1.51115688740619        0.40298335029893
C           -7.78578385894775       -0.33825960960830        0.35415647385305
C           -7.17631144712157        0.88593181103333        0.16386983525924
C           -5.79431027697104        0.92871591993598        0.03797422219207
C           -4.85589673959841        1.99356314917867       -0.18571704890344
C           -4.98937010844552        3.36903650592337       -0.32221318066665
C           -3.85065164619170        4.12844803603836       -0.50237893281035
C           -2.59078479699868        3.53496633900255       -0.52857167457372
C           -2.43216048105784        2.16845466897586       -0.39571256390432
C           -3.57592230989021        1.39821359388458       -0.24393777861194
C           -1.71266781454588       -0.87098543181720       -1.09598139448227
C           -0.65850083292365       -1.76016114059456       -1.09117164395815
C            3.48598047440539       -3.28069993259156       -0.33895335031709
C            4.60729138537915       -2.48242542068532       -0.37930548902874
C            4.51977262048243       -1.10599313040903       -0.16167969796578
H            7.65764904704868        1.51845184527812       -0.16961848598194
H            7.47454860200969        3.95325579495120        0.27183103008709
H            5.26225013622904        4.94952823571428        0.73625487682981
H            3.24530173227434        3.50460175276171        0.75754813191014
H            1.19593623664088       -0.88644894607030        0.40927060782435
H           -1.35197600830062       -3.41634060819120        1.77675684352008
H           -3.24328468303707       -1.82621130179986        1.76997973178133
H           -5.09125188250659       -2.41152845937930        0.29921163302625
H           -7.54190533609347       -2.45617980011949        0.53640810714115
H           -8.85921270113491       -0.39338790377090        0.45730714821229
H           -7.75822276678978        1.79346329519608        0.10849872316697
H           -5.96469206240181        3.83000108843055       -0.28151167506090
H           -3.93218926521831        5.19954394199389       -0.61304116183260
H           -1.71563120704250        4.15565424689121       -0.64981907269939
H           -1.44742024560595        1.72639348700292       -0.39301884645163
H           -1.82606561091673       -0.16958427673423       -1.90820961197104
H            0.06373624830013       -1.75264549548508       -1.89389659183261
H            3.55789634855645       -4.34310752879880       -0.51533827164206
H            5.57913527971111       -2.90437787302166       -0.58765432033245
