55
 energy: -92.475419680387 gnorm: 0.000030600904 xtb: 6.7.1 (edcfbbe)
O            6.66078413396105       -0.73854518425907       -1.04877285653528
C            5.63309720812163       -0.25993569690892       -0.54789847349423
C            5.51519890582959        1.14746206725263       -0.19120824145757
C            6.62140098456497        1.98155521909001       -0.41552410012926
C            6.56326215722828        3.31785216509834       -0.10828756036741
C            5.39586391549998        3.86327467130566        0.43181249892687
C            4.30325752644575        3.06468205628050        0.65751429579271
C            4.34364427733929        1.69424863810837        0.35492035600323
C            3.15770723692846        0.89702829291321        0.62206338102082
O            2.10631570468899        1.37870091356632        1.07084331719817
C            3.29255458123624       -0.51567549790424        0.30463157396334
C            2.19890964762824       -1.34923649868665        0.56437493786584
C            2.24178972897539       -2.68033569751765        0.22280457197786
S            0.85934939130645       -3.74692734715989        0.54598966259220
C           -0.50822933436324       -2.64657200568694        0.32334154726670
C           -1.60221118814725       -2.76154742686836        1.17431557052911
C           -2.66781702756874       -1.89468679410893        1.05054674410418
C           -2.65124981212593       -0.90035266839936        0.07255123716443
N           -3.69683929573814        0.01694841676214       -0.02544598277614
C           -5.04610965856069       -0.28054241827052       -0.04066596105968
C           -5.67947193047407       -1.51523355186426       -0.02472096181396
C           -7.06093237312429       -1.53164292911420       -0.08257255648907
C           -7.79850876731080       -0.35390651654548       -0.16582847478909
C           -7.17102168873875        0.87765937936321       -0.21103530521384
C           -5.78624356826472        0.91906897136124       -0.15299615575035
C           -4.82611116415243        1.99015317730900       -0.19684455621265
C           -4.94140912029838        3.36999837282694       -0.27576915990222
C           -3.78664650911075        4.13092428422632       -0.26448737059174
C           -2.53433652254121        3.53233915197000       -0.15600284088778
C           -2.39412312598920        2.15902661476472       -0.07572278686176
C           -3.54887262685682        1.38982225432165       -0.11840441514928
C           -1.57049783050535       -0.82037655164494       -0.80748154044959
C           -0.51126162749779       -1.69223567508784       -0.68963548594699
C            3.40564860566197       -3.23623627581849       -0.33190721696394
C            4.49513304715978       -2.43707365864989       -0.55288744731676
C            4.45845225217040       -1.06189586125392       -0.26207446726541
H            7.50942750805678        1.53358508396479       -0.83642493452200
H            7.42158488949983        3.94896477660838       -0.28514665147681
H            5.35361621040253        4.91517776130448        0.67311641330543
H            3.38795284825278        3.45795093696017        1.07491214773517
H            1.33024668510980       -0.90442405067929        1.02750515358449
H           -1.59679341644445       -3.51382653317316        1.94774644404610
H           -3.49685000047870       -1.95378502125168        1.73890298267192
H           -5.11651097162872       -2.43515150541645        0.01690977838132
H           -7.57780609100257       -2.47939057555427       -0.06743550777850
H           -8.87590482680042       -0.40766952911538       -0.20654550561180
H           -7.74310001636122        1.78892036426395       -0.29484520238289
H           -5.91299880406430        3.83584515614573       -0.33763510972144
H           -3.85436771689514        5.20651828657359       -0.32741408983121
H           -1.65106295161195        4.15184715902313       -0.12714067420550
H           -1.41838206310255        1.71181336822984        0.03502585618435
H           -1.57799613505520       -0.08305483971850       -1.59535442483422
H            0.31729124124293       -1.63048057265414       -1.37866116889502
H            3.42759920695540       -4.28584047336271       -0.58049558526780
H            5.40564757411823       -2.83372624580823       -0.97696322714062
