  42
  -65.1874006700000       0.165752292096476      !
 N          3.4030600858        2.9868239407       -0.2220049234
 C          3.1669952993        1.8650649767       -0.1190791868
 C          2.8032059551        0.5116088314        0.0272041921
 C          3.7799279307       -0.4769805849        0.2457395548
 C          5.1836683648       -0.3920853502        0.1184922718
 C          5.8704665398        0.6793869120       -0.4960387350
 C          7.2429802206        0.6772109778       -0.5843618797
 C          7.9870198747       -0.3807108361       -0.0746328089
 C          7.3336658815       -1.4559560951        0.5189205618
 C          5.9634783092       -1.4689150139        0.6081920362
 C          1.4090430731        0.2409582514        0.0146446051
 C          0.8784596678       -1.0789747844       -0.0111593244
 C         -0.4614833773       -1.3065813153       -0.0204218316
 C         -1.4081550428       -0.2434175864        0.0096405171
 C         -2.8026966024       -0.5159071433        0.0181110801
 C         -3.1624750789       -1.8697502041       -0.1339932733
 N         -3.3947673094       -2.9914945150       -0.2431238565
 C         -3.7804947884        0.4722459098        0.2313815691
 C         -5.1854162829        0.3893765841        0.1142364571
 C         -5.9549134923        1.4881606890        0.5707027438
 C         -7.3255572369        1.4830803301        0.4889021236
 C         -7.9905967154        0.3922826239       -0.0619615860
 C         -7.2574206075       -0.6893867981       -0.5360208233
 C         -5.8842723244       -0.6988067716       -0.4559710679
 C         -0.8770494532        1.0766293532        0.0035854079
 C          0.4628740932        1.3045180325       -0.0010476330
 H          3.4125604139       -1.4322991086        0.5948266915
 H          5.3128343547        1.4993068613       -0.9164995469
 H          7.7466100845        1.5066242958       -1.0585529879
 H          9.0639696381       -0.3717267775       -0.1450841208
 H          7.9070112223       -2.2840265861        0.9093677073
 H          5.4616172229       -2.3056095300        1.0728878470
 H          1.5476345369       -1.9242992662       -0.0470144987
 H         -0.8274117077       -2.3224457579       -0.0437390681
 H         -3.4117475437        1.4332598514        0.5627830676
 H         -5.4442921948        2.3377684627        1.0016589435
 H         -7.8900348210        2.3294859933        0.8517913985
 H         -9.0679035899        0.3893770753       -0.1268359989
 H         -7.7699411312       -1.5319523695       -0.9761323956
 H         -5.3362402112       -1.5387559001       -0.8476575687
 H         -1.5448937093        1.9233309207       -0.0200210854
 H          0.8292039155        2.3205098712       -0.0091112872
  42
  -65.1873919000000       0.164221165400858      !
 N          3.3834098579        2.9884747336       -0.2580281602
 C          3.1578506847        1.8649632818       -0.1528870559
 C          2.8031036243        0.5086237693       -0.0083711737
 C          3.7819094583       -0.4785554519        0.1986208607
 C          5.1889610983       -0.3881895734        0.1075353504
 C          5.8948654519        0.7165054830       -0.4202662694
 C          7.2695248743        0.7142692204       -0.4719305165
 C          7.9973760376       -0.3765359743       -0.0107087908
 C          7.3256580725       -1.4837088864        0.4976149247
 C          5.9534782025       -1.4956077912        0.5510889284
 C          1.4083007752        0.2341504475       -0.0189039610
 C          0.8764183261       -1.0855435778       -0.0265307287
 C         -0.4636263863       -1.3130452881       -0.0260235100
 C         -1.4102790247       -0.2496046431       -0.0041341023
 C         -2.8042268130       -0.5210270955        0.0188435655
 C         -3.1667754234       -1.8758033917       -0.1151888579
 N         -3.4026175821       -2.9984860599       -0.2089899849
 C         -3.7794429861        0.4716182734        0.2304373757
 C         -5.1844891705        0.3913602736        0.1216334614
 C         -5.8895105831       -0.7007028597       -0.4343006211
 C         -7.2628002096       -0.6873732805       -0.5090548140
 C         -7.9906329494        0.4019021182       -0.0437120545
 C         -7.3198752809        1.4959526366        0.4939374076
 C         -5.9490009796        1.4971768995        0.5707401534
 C         -0.8785462034        1.0699795029       -0.0322842756
 C          0.4614472428        1.2970493795       -0.0454301000
 H          3.4130830547       -1.4477738933        0.5050802607
 H          5.3519094848        1.5649862017       -0.8007912354
 H          7.7872727377        1.5699249289       -0.8795307073
 H          9.0758169140       -0.3678239004       -0.0526344675
 H          7.8860355186       -2.3372092546        0.8504968871
 H          5.4379737161       -2.3580352244        0.9497027486
 H          1.5432277137       -1.9329847071       -0.0532352762
 H         -0.8296276973       -2.3291564753       -0.0339914879
 H         -3.4059370797        1.4338218673        0.5532550864
 H         -5.3456672650       -1.5468452814       -0.8187833665
 H         -7.7799684834       -1.5325268145       -0.9386596227
 H         -9.0681578574        0.4021942089       -0.1048945771
 H         -7.8803066430        2.3478803892        0.8504612756
 H         -5.4338760741        2.3495076636        0.9909103987
 H         -1.5461848648        1.9165045059       -0.0666372798
 H          0.8267216863        2.3130738758       -0.0701130079
  42
  -65.1873189600000       0.152022624795040      !
 N          3.3892816157        2.9819526013       -0.2149668393
 C          3.1612278129        1.8555374432       -0.1578936749
 C          2.8040299576        0.4932900688       -0.1060476267
 C          3.7857824776       -0.5125020874       -0.1579377521
 C          5.1894172132       -0.4024271198       -0.0458884878
 C          5.8737974438        0.7596302756        0.3770026945
 C          7.2462357913        0.7754290703        0.4659667431
 C          7.9931523154       -0.3521614185        0.1449324594
 C          7.3424796294       -1.5140134148       -0.2579791407
 C          5.9723751645       -1.5447923614       -0.3454338397
 C          1.4095958721        0.2242734633       -0.0676177858
 C          0.8759454738       -1.0777786453        0.1435155919
 C         -0.4645578042       -1.2985144836        0.1888299802
 C         -1.4098329120       -0.2444502012        0.0372386331
 C         -2.8047765242       -0.5092938798        0.0892370669
 C         -3.1663861973       -1.8695528973        0.1553858963
 N         -3.3977361616       -2.9945039576        0.2261678321
 C         -3.7806855578        0.5023834908        0.1409291330
 C         -5.1864185745        0.4046111938        0.0491283223
 C         -5.9508430866        1.5657718105        0.3243291070
 C         -7.3219067791        1.5518643309        0.2524716651
 C         -7.9927380993        0.3876527165       -0.1084431456
 C         -7.2648977079       -0.7596000708       -0.4025484489
 C         -5.8913210450       -0.7603998437       -0.3297206078
 C         -0.8758721850        1.0565427605       -0.1798975301
 C          0.4643656076        1.2774767186       -0.2242834670
 H          3.4237300782       -1.5139982473       -0.3460459257
 H          5.3146483308        1.6382751120        0.6510447183
 H          7.7473833443        1.6744174344        0.7930857311
 H          9.0699933816       -0.3291262605        0.2144120274
 H          7.9178433696       -2.3952754457       -0.5012832020
 H          5.4727950816       -2.4500207031       -0.6606931868
 H          1.5426226889       -1.9119152678        0.2963946325
 H         -0.8320162102       -2.2994150522        0.3609020938
 H         -3.4090214673        1.5040922944        0.3081773017
 H         -5.4356627607        2.4727487432        0.6075495435
 H         -7.8823256788        2.4480543539        0.4752790722
 H         -9.0704047510        0.3778499588       -0.1659968292
 H         -7.7819892505       -1.6611734134       -0.6957252834
 H         -5.3475719823       -1.6554353551       -0.5804516320
 H         -1.5415498373        1.8905196924       -0.3373168119
 H          0.8316788155        2.2778502820       -0.3995298291
  42
  -65.1871535700000       0.127614565270028      !
 N          3.3890537831        2.9974327650        0.4393699166
 C          3.1634978556        1.8761997532        0.3114016430
 C          2.8038527626        0.5225854075        0.1575823941
 C          3.7647168129       -0.4686737169       -0.1068640193
 C          5.1737416580       -0.3848228157       -0.1576047026
 C          5.9356716181        0.7489836209        0.2034156657
 C          7.3077888906        0.7345400988        0.1073949416
 C          7.9794099854       -0.3965311190       -0.3417203642
 C          7.2539270152       -1.5313584390       -0.6885608942
 C          5.8842123016       -1.5308844151       -0.5948867044
 C          1.4099564578        0.2489198720        0.2247877151
 C          0.8776202330       -1.0700684199        0.2608538625
 C         -0.4624266024       -1.2973071812        0.2632252715
 C         -1.4085992690       -0.2346325594        0.2092401115
 C         -2.8007009341       -0.5092847365        0.1316268861
 C         -3.1624895836       -1.8638812716        0.2722285858
 N         -3.3923595116       -2.9863748866        0.3832407253
 C         -3.7642102657        0.4783625845       -0.1423029104
 C         -5.1729491455        0.3856898646       -0.1688273898
 C         -5.8991886567        1.4993458417       -0.6607855835
 C         -7.2704438140        1.4834444187       -0.7323211398
 C         -7.9814032535        0.3656082675       -0.3065768270
 C         -7.2938385648       -0.7311161245        0.2009780510
 C         -5.9201384856       -0.7293989485        0.2748264036
 C         -0.8768029543        1.0848283655        0.2463992731
 C          0.4633937544        1.3118857372        0.2634947471
 H          3.3690577110       -1.4448281444       -0.3512219738
 H          5.4394461869        1.6330669975        0.5648002160
 H          7.8683659498        1.6134982514        0.3864477001
 H          9.0557019166       -0.3966922309       -0.4165106576
 H          7.7702754761       -2.4156355937       -1.0323027453
 H          5.3264737937       -2.4143446741       -0.8720960319
 H          1.5437524387       -1.9170464798        0.3088356253
 H         -0.8279371087       -2.3130024418        0.2910705521
 H         -3.3728606953        1.4480548505       -0.4175786701
 H         -5.3528249280        2.3689660756       -0.9980056143
 H         -7.7997516639        2.3409822270       -1.1214607852
 H         -9.0591473689        0.3531604052       -0.3643406741
 H         -7.8432482955       -1.5949057945        0.5451609176
 H         -5.4105935800       -1.5839774623        0.6866536846
 H         -1.5444832531        1.9314116806        0.2811005854
 H          0.8289229061        2.3277844185        0.2892533617
  42
  -65.1871438700000       0.126311366621608      !
 N          3.3978636693        2.9934917383        0.0209234224
 C          3.1588339859        1.8693948779        0.0779696881
 C          2.8018179548        0.5111140205        0.1957682931
 C          3.7930645519       -0.4818522192        0.3041065061
 C          5.1770363230       -0.3945326937        0.0379779812
 C          5.8007962362        0.6944352193       -0.6123446746
 C          7.1546280556        0.6881030336       -0.8548771007
 C          7.9412423975       -0.3913412518       -0.4694991617
 C          7.3489960497       -1.4822574721        0.1587300647
 C          5.9975621129       -1.4904762588        0.4027023156
 C          1.4093398180        0.2395995162        0.2515616362
 C          0.8762122760       -1.0797452795        0.2609303415
 C         -0.4639290286       -1.3055233571        0.2602340174
 C         -1.4097760815       -0.2411416492        0.2521826062
 C         -2.8023739030       -0.5122330245        0.1977016317
 C         -3.1608489459       -1.8705527012        0.0856937227
 N         -3.3963730722       -2.9951058212        0.0257849279
 C         -3.7928050989        0.4817131657        0.3040269746
 C         -5.1768436985        0.3950670327        0.0379634717
 C         -5.9964495262        1.4920344619        0.4014953778
 C         -7.3478690713        1.4846283411        0.1574696872
 C         -7.9408376274        0.3937110281       -0.4701279852
 C         -7.1550972935       -0.6868637215       -0.8541773421
 C         -5.8014064255       -0.6942755482       -0.6109786375
 C         -0.8766817012        1.0782233536        0.2552875141
 C          0.4634272906        1.3039828082        0.2541414050
 H          3.4582890130       -1.4488498953        0.6537064764
 H          5.2072984563        1.5316463225       -0.9392550664
 H          7.6089600181        1.5302036300       -1.3556491421
 H          9.0029540531       -0.3869852669       -0.6633640131
 H          7.9547751742       -2.3267677073        0.4530349600
 H          5.5433125521       -2.3406757051        0.8916173932
 H          1.5424012980       -1.9278141313        0.2454698572
 H         -0.8311031643       -2.3211990002        0.2598054847
 H         -3.4572372485        1.4490175440        0.6521091980
 H         -5.5416144571        2.3421188911        0.8900921637
 H         -7.9527793313        2.3305819223        0.4496303518
 H         -9.0022552285        0.3907060874       -0.6655041881
 H         -7.6097845468       -1.5283915852       -1.3555217394
 H         -5.2082371369       -1.5315379315       -0.9383987121
 H         -1.5428846708        1.9262754329        0.2378826825
 H          0.8305630162        2.3196627237        0.2500165601
  42
  -65.1870859100000       0.118797106347974      !
 N          3.3904026909        3.0115619483        0.0528038706
 C          3.1636095894        1.8838759824        0.0673505735
 C          2.8002051513        0.5217821435        0.0883582235
 C          3.7551178401       -0.4922703317       -0.0582376849
 C          5.1668449704       -0.4089131263       -0.1223980085
 C          5.9224947487        0.7477234405        0.1674045771
 C          7.2950963172        0.7347482174        0.0684213503
 C          7.9698237260       -0.4177265200       -0.3158645140
 C          7.2490739927       -1.5751282870       -0.5895640532
 C          5.8789622080       -1.5759703040       -0.4893644575
 C          1.4033687932        0.2635715628        0.1936199760
 C          0.8721984917       -1.0345272573        0.4277875665
 C         -0.4677220456       -1.2562260717        0.4789268323
 C         -1.4142313810       -0.2063713530        0.3007756108
 C         -2.8044419933       -0.4814889760        0.2914865385
 C         -3.1665355337       -1.8389848365        0.3850685599
 N         -3.4064294423       -2.9595053074        0.4942275747
 C         -3.7982645386        0.5218955605        0.2523830304
 C         -5.1746530414        0.3970975832       -0.0199014691
 C         -6.0032146109        1.5311613681        0.1788026312
 C         -7.3501178185        1.4847449483       -0.0813456011
 C         -7.9320250219        0.3156082762       -0.5627131017
 C         -7.1382380707       -0.8043837249       -0.7854251553
 C         -5.7887956614       -0.7735678144       -0.5250596854
 C         -0.8807339654        1.0985767059        0.1031058203
 C          0.4599200583        1.3201569217        0.0623295810
 H          3.3606081989       -1.4899734015       -0.1942186709
 H          5.4226463866        1.6478801494        0.4825053214
 H          7.8525606169        1.6314196975        0.2949277872
 H          9.0461679736       -0.4168935652       -0.3956566241
 H          7.7684741727       -2.4762499786       -0.8813196113
 H          5.3245630051       -2.4780355886       -0.7068272710
 H          1.5400684934       -1.8653061903        0.5939032693
 H         -0.8348710923       -2.2546228029        0.6655975319
 H         -3.4652735402        1.5251530366        0.4800865536
 H         -5.5570313980        2.4411485588        0.5542140702
 H         -7.9617343262        2.3594270297        0.0855345989
 H         -8.9907157227        0.2814426795       -0.7695235036
 H         -7.5845857057       -1.7081755011       -1.1730765246
 H         -5.1890111186       -1.6453682001       -0.7261355597
 H         -1.5474713571        1.9338982090       -0.0416966336
 H          0.8269007347        2.3225062812       -0.1020297071
  42
  -65.1870189000000       0.110664977100642      !
 N          3.3973267334        2.9952913395       -0.0851722866
 C          3.1596558379        1.8703805857       -0.1323733866
 C          2.8018163874        0.5111382897       -0.2357154009
 C          3.7940979420       -0.4837764663       -0.3146152475
 C          5.1718195059       -0.3956937235       -0.0176959874
 C          5.7822909204        0.6997786428        0.6344388123
 C          7.1293970016        0.6927219504        0.9117756162
 C          7.9223881459       -0.3934377228        0.5597823472
 C          7.3432336509       -1.4900734963       -0.0707054844
 C          5.9983008526       -1.4978198986       -0.3487605249
 C          1.4099822503        0.2400305046       -0.3055685735
 C          0.8757669935       -1.0788979821       -0.3160287935
 C         -0.4644787439       -1.3036894593       -0.3167915263
 C         -1.4099840376       -0.2388533288       -0.3058868414
 C         -2.8017538951       -0.5102255919       -0.2359921839
 C         -3.1592120902       -1.8696642105       -0.1332443231
 N         -3.3958261226       -2.9948404489       -0.0855966863
 C         -3.7945650540        0.4842282546       -0.3153187890
 C         -5.1721931902        0.3953992800       -0.0182713554
 C         -5.9995636981        1.4963485912       -0.3506874883
 C         -7.3442941158        1.4880301999       -0.0722343609
 C         -7.9225687360        0.3917436992        0.5596624392
 C         -7.1287505729       -0.6933422831        0.9130029084
 C         -5.7816440660       -0.6995757054        0.6356291274
 C         -0.8757940406        1.0800429624       -0.3184840061
 C          0.4644517287        1.3048562977       -0.3188430644
 H          3.4653926092       -1.4545679286       -0.6594630630
 H          5.1831399135        1.5427384976        0.9354992459
 H          7.5732942605        1.5395816339        1.4139417036
 H          8.9785920658       -0.3900564951        0.7816701822
 H          7.9539654916       -2.3396366201       -0.3393319101
 H          5.5544541332       -2.3517191576       -0.8407253704
 H          1.5409851099       -1.9278041984       -0.3022480461
 H         -0.8321763415       -2.3192185017       -0.3170780674
 H         -3.4663867796        1.4549454314       -0.6606767730
 H         -5.5563088728        2.3505287704       -0.8427968669
 H         -7.9555544995        2.3369162822       -0.3415673073
 H         -8.9787150522        0.3879042643        0.7819140556
 H         -7.5718312286       -1.5397450388        1.4165377071
 H         -5.1816535557       -1.5412676132        0.9384557449
 H         -1.5410562144        1.9289418599       -0.3072576915
 H          0.8320839163        2.3203709926       -0.3213897409
  42
  -65.1859206200000       3.461590236737282E-002 !
 N          2.4721157201        2.8549869715       -0.7211096011
 C          2.4014737904        1.7289840307       -0.5047484814
 C          2.2297152239        0.3486188039       -0.2499985681
 C          3.2578357541       -0.4379992374        0.2124625716
 C          4.6389598303       -0.1198783919        0.4220543230
 C          5.2715458503        1.0384022586       -0.0556044100
 C          6.6117024071        1.2579647483        0.1856085861
 C          7.3612277916        0.3377284097        0.9035493383
 C          6.7575544009       -0.8199356739        1.3739055039
 C          5.4210741089       -1.0487728904        1.1328405993
 C          0.8884414736       -0.1440137131       -0.4558344156
 C          0.5923318148       -1.5254276910       -0.5221346864
 C         -0.6813889407       -1.9704998059       -0.7115574217
 C         -1.7723632297       -1.0654649456       -0.8258198006
 C         -3.0879076863       -1.5390242303       -0.9667542479
 C         -3.3063670250       -2.9014092401       -1.2050498891
 N         -3.5259967391       -4.0129289590       -1.4150118701
 C         -4.2851137699       -0.7333927853       -0.9386831568
 C         -4.6006035500        0.2403179050        0.0090371642
 C         -5.7730817145        1.0272996724       -0.1575699288
 C         -6.0918920416        2.0184777606        0.7344440644
 C         -5.2797525831        2.2622097050        1.8404374899
 C         -4.1451528828        1.4825573908        2.0468149029
 C         -3.8076535332        0.4876842296        1.1636400423
 C         -1.4653073412        0.3230299301       -0.8142898908
 C         -0.1853046135        0.7578549232       -0.6363267504
 H          2.9947691979       -1.4479089974        0.4994325518
 H          4.7131605585        1.7584220587       -0.6297570615
 H          7.0794189295        2.1548324863       -0.1923833610
 H          8.4092512494        0.5175046329        1.0899073351
 H          7.3363747979       -1.5445471883        1.9275787910
 H          4.9572013172       -1.9520835109        1.5038010346
 H          1.3883815455       -2.2504082668       -0.4492836305
 H         -0.8837968249       -3.0306810143       -0.7631757383
 H         -5.0353319400       -0.9725305575       -1.6824129861
 H         -6.4013541826        0.8419636091       -1.0165973392
 H         -6.9797235661        2.6146171957        0.5818079007
 H         -5.5371257816        3.0416893872        2.5407180089
 H         -3.5287108492        1.6565941029        2.9167293663
 H         -2.9446973462       -0.1319996333        1.3537111691
 H         -2.2594447406        1.0375206350       -0.9660635866
 H          0.0167411590        1.8187873822       -0.6286521929
