  62
       -100.67668691
 O          2.1579157115       -1.6688152808        2.4528474541
 P          2.1193495050       -1.4800840265        0.9968678729
 C          3.7041989606       -0.9675136404        0.2666100409
 C          4.2958800988       -1.6060218743       -0.8120836986
 C          5.5100081833       -1.1427748763       -1.2912974147
 C          6.1215540911       -0.0494039005       -0.7009482046
 C          5.5300583199        0.5814942215        0.3831509903
 C          4.3212639647        0.1208415603        0.8694899518
 C          1.4170272292       -2.8604504602        0.0571648784
 C          1.1173246175       -4.0330955076        0.7347532834
 C          0.5242651888       -5.0841791750        0.0569609481
 C          0.2263933525       -4.9566215751       -1.2901035595
 C          0.5214376387       -3.7812091724       -1.9651336038
 C          1.1165989291       -2.7292975574       -1.2943154095
 C          0.9885648648       -0.0857425252        0.5530500193
 N          1.5075612186        1.0589825516        0.3342652251
 C          0.6178816984        2.0927603203        0.0766250776
 C          1.1111601832        3.3946747744       -0.1443133014
 C          2.4937054880        3.6569889451       -0.0442244614
 C          2.9821451184        4.9249330741       -0.2459361215
 C          2.1214994871        5.9728873895       -0.5560769532
 C          0.7582570095        5.7271393058       -0.6690681074
 C          0.2515124361        4.4650394983       -0.4709699565
 N         -0.6941201077        1.7615273102        0.0080535009
 C         -1.1279215643        0.5605929434        0.2245048247
 N         -2.4523481081        0.2604669964        0.1278351057
 C         -3.0204674964       -1.0120405568        0.0483006340
 C         -2.4206632857       -2.2607034292        0.0349679082
 C         -3.2386547511       -3.3715474046       -0.0775580667
 C         -4.6204288541       -3.2511273372       -0.1822683518
 C         -5.2245909894       -2.0075671378       -0.1721487734
 C         -4.4231793287       -0.8815904126       -0.0566152390
 C         -4.7183851370        0.5269790553       -0.0181828880
 C         -5.8985822326        1.2530792484       -0.0750962031
 C         -5.8320089800        2.6322462650        0.0013041741
 C         -4.6102529969        3.2837260721        0.1394083774
 C         -3.4220039331        2.5767126513        0.2004500769
 C         -3.4828622675        1.1978075421        0.1039500368
 N         -0.2751660595       -0.4662787156        0.5530569089
 H          3.8165168544       -2.4595443062       -1.2702741411
 H          5.9771034149       -1.6369031345       -2.1305120884
 H          7.0637986439        0.3118759071       -1.0854813376
 H          6.0109012540        1.4311986670        0.8451817000
 H          3.8407102785        0.5892297342        1.7168795834
 H          1.3492324923       -4.0983623346        1.7878012324
 H          0.2897784767       -5.9990975344        0.5805159546
 H         -0.2432855203       -5.7732382218       -1.8181245097
 H          0.2799356877       -3.6841913144       -3.0132072492
 H          1.3382908120       -1.8018739534       -1.8052936662
 H          3.1533808590        2.8356506207        0.1915766792
 H          4.0436142392        5.1113409831       -0.1639134502
 H          2.5101707716        6.9677677249       -0.7121933745
 H          0.0875709111        6.5377214162       -0.9177244913
 H         -0.8052092038        4.2726588857       -0.5735359618
 H         -1.3530603338       -2.3660606447        0.1216704989
 H         -2.7870145033       -4.3523291086       -0.0854066029
 H         -5.2259097042       -4.1404783003       -0.2727861906
 H         -6.2963356925       -1.9090872036       -0.2529601595
 H         -6.8468368881        0.7476029743       -0.1754968375
 H         -6.7400126207        3.2150575299       -0.0366582098
 H         -4.5882313614        4.3606352191        0.2101632480
 H         -2.4749936428        3.0759457530        0.3304449380
