62
 energy: -100.810368354631 gnorm: 0.000096239098 xtb: 6.7.1 (edcfbbe)
O            2.27349533956110       -1.51319545168717        2.26880191038241
P            2.14827165900849       -1.44110721813229        0.79662417059164
C            3.69888429256566       -0.98732014316538       -0.03668738230433
C            4.15274708458554       -1.58658900352017       -1.20326544800873
C            5.34569290636317       -1.16653035771747       -1.76749333748684
C            6.07793907940949       -0.15070435617276       -1.17447440471666
C            5.62525246850776        0.44524331653686       -0.00709205506066
C            4.43824161347211        0.02473529784040        0.56420649764932
C            1.46690230581450       -2.93512702597984        0.03137538943292
C            1.44115628764262       -4.10293866523594        0.78121781326990
C            0.91512487275044       -5.26129792400418        0.23573448979704
C            0.41299802109338       -5.24877738342705       -1.05577083782580
C            0.43575036340327       -4.08135059932535       -1.80459891250386
C            0.96372788245695       -2.92293916049902       -1.26479550210332
C            0.97110207845204       -0.10403373258761        0.38361282962630
N            1.46958449163218        1.11191996974325        0.30484449669665
C            0.55183838792732        2.08304616725900        0.20529892212730
C            1.02743476039494        3.46397033600060        0.17445195742448
C            2.37748727627448        3.72413537247763       -0.06260318369295
C            2.83572008502619        5.02718158104787       -0.09232493424890
C            1.95641883679463        6.07867850352061        0.11937111232667
C            0.61490264166249        5.82553786562714        0.36353198646556
C            0.14853652798686        4.52514595491760        0.39028177096713
N           -0.75217612417439        1.86034916561969        0.13235124104542
C           -1.14496188634492        0.58632452978612        0.18153728433151
N           -2.46823605560824        0.31061013620927        0.07040119423606
C           -3.07219564454159       -0.93938884713660        0.28476444408523
C           -2.51620868559802       -2.15506561416800        0.64649414550995
C           -3.36682921159118       -3.23812970833902        0.80365616814019
C           -4.73816686862908       -3.12272729771983        0.61014403486215
C           -5.29979512071167       -1.90946112097939        0.25787084694651
C           -4.46356342724177       -0.81487720239196        0.09580050538406
C           -4.72252046919761        0.55909497735535       -0.25578392593126
C           -5.89025731972696        1.24073468405495       -0.56544301884781
C           -5.80583354076116        2.58244829478353       -0.88864417370191
C           -4.57563455847794        3.22852377355048       -0.91437203064009
C           -3.39940726221577        2.56261388703382       -0.60770185598885
C           -3.48015539022888        1.22384991395823       -0.26497392580117
N           -0.29678183163208       -0.44082519694999        0.33414942367577
H            3.58093768941942       -2.38136220778623       -1.66091409936271
H            5.70368108861688       -1.63556744141766       -2.67200942788963
H            7.00613308950976        0.17451999889794       -1.61996822032847
H            6.19734920175159        1.23453300344519        0.45791654474989
H            4.06659179714461        0.46521596038312        1.47931988434947
H            1.83174220361528       -4.07890991439069        1.78936484158858
H            0.89464373956594       -6.17007600702058        0.81847842719113
H           -0.00106159404934       -6.15053364469902       -1.48123863531859
H            0.03919566017928       -4.07381843954503       -2.80907944533264
H            0.98124283063874       -2.00404500765961       -1.83602177467263
H            3.04493857338812        2.89149584653515       -0.22492142932876
H            3.88043179698759        5.22432484091855       -0.28021416839693
H            2.31736561272747        7.09598925146592        0.09731817477875
H           -0.06799055469756        6.64395742017641        0.53533822454811
H           -0.88986858815285        4.31300766382215        0.59327464520562
H           -1.45585009479488       -2.25994300453954        0.80185235274851
H           -2.94699103956045       -4.19203411732518        1.08498950903328
H           -5.36849670472665       -3.98922831296721        0.74067177684334
H           -6.36407453849545       -1.80951822133576        0.11240836718474
H           -6.83986257392625        0.72899355599961       -0.55581197430672
H           -6.70146134399298        3.13414157510403       -1.13081868080654
H           -4.52929480774559        4.27360247930239       -1.18128785984338
H           -2.45023252736206        3.06831350337119       -0.64076707067394
