62
 energy: -100.723726877973 gnorm: 0.000081816389 xtb: 6.7.1 (edcfbbe)
O            2.16390467998825       -1.63259322091420        2.19662395145651
P            2.11497516464858       -1.47898098669579        0.72955635169305
C            3.70661517061535       -0.99696280803049       -0.00336470261884
C            4.23482384788188       -1.59027571986930       -1.14110179834174
C            5.46928729990095       -1.17400547089688       -1.61156682943625
C            6.16339512891234       -0.16983943097455       -0.95633713621037
C            5.63279977915350        0.41950121618999        0.18182219134435
C            4.40329127387333        0.00559032717347        0.66004391260783
C            1.41548072377557       -2.89914589550846       -0.14828819997364
C            1.23701446185055       -4.07865411127554        0.56209667223127
C            0.68323229145595       -5.18093742387659       -0.06573967149886
C            0.30396517169794       -5.09900105736248       -1.39597704760668
C            0.47986898623238       -3.91875796946661       -2.10371674147099
C            1.03599772528707       -2.81523743770962       -1.48351173419283
C            0.97157133630509       -0.08268407491723        0.32629617944157
N            1.47890949763924        1.08922886745666        0.33213533838489
C            0.56960233994171        2.13507729617052        0.20331393156376
C            1.03631367441807        3.46541093748338        0.16050576263254
C            2.42005140223185        3.73963768778576        0.12118711653047
C            2.87762394363854        5.03453254191812        0.06993714071275
C            1.98341310640568        6.10047283025182        0.05676677203529
C            0.61698972164742        5.84707649746186        0.10050099183333
C            0.14183231006540        4.55828991098319        0.15239123041036
N           -0.74585831040031        1.81072847457518        0.18429867280868
C           -1.15497507440533        0.58230766348208        0.18620203821150
N           -2.48448200132368        0.28195905289261        0.14974585920633
C           -3.07143995149250       -0.94478175260274        0.46264426856425
C           -2.49864963450779       -2.11234203034905        0.94290485161997
C           -3.33215065228251       -3.19249279683300        1.18041486246738
C           -4.70400023057752       -3.11384631086341        0.96303718454788
C           -5.28366062388140       -1.94525215356609        0.50045263594041
C           -4.46552715831551       -0.85404779833097        0.25000710617600
C           -4.73230612745194        0.48224839705155       -0.21931784740693
C           -5.89290500154997        1.15016249227424       -0.57958390379928
C           -5.79646732096972        2.46368108165301       -1.00621490779790
C           -4.56355447801529        3.10478427152850       -1.08108460739356
C           -3.39335491577644        2.45377310455507       -0.72832932912959
C           -3.48840074128966        1.14798829225976       -0.27750767518065
N           -0.28016750782556       -0.47839404929470        0.20113414946471
H            3.69183196431045       -2.37545112965274       -1.64701829377848
H            5.88746296405324       -1.63584572590222       -2.49344203466713
H            7.12209468816648        0.15478359850225       -1.33188877800293
H            6.17537522340675        1.19949747652108        0.69486128042340
H            3.96696733116875        0.44460344735867        1.54714363535096
H            1.53282837533167       -4.10951041283399        1.60163842467484
H            0.54424476857239       -6.09946052579132        0.48435448458265
H           -0.13421315894676       -5.95632667962481       -1.88421532983801
H            0.18003983370869       -3.85807159151269       -3.13929333551823
H            1.16797479895209       -1.88579256466683       -2.02067613902431
H            3.10495144539023        2.90472010134121        0.13041457620001
H            3.94079555848984        5.22662730509420        0.03968040956805
H            2.34759877480967        7.11569058426762        0.01723709185870
H           -0.08169411679881        6.67198095779600        0.09629490747971
H           -0.91840323415827        4.36119357191747        0.20326259040875
H           -1.43750426199449       -2.17720035417126        1.12143051343001
H           -2.90410709159601       -4.11158527261059        1.55053233910664
H           -5.32263804548137       -3.97475379287365        1.16587912619531
H           -6.34816052123550       -1.87914191909353        0.33846017355938
H           -6.84872705563128        0.65287532987140       -0.52686274485645
H           -6.68798131287384        2.99894681583024       -1.29541169799414
H           -4.51377781314940        4.12496574249617       -1.42995970910629
H           -2.43248194629687        2.93785070486462       -0.80641635166539
