62
 energy: -100.809199335879 gnorm: 0.000046011857 xtb: 6.7.1 (edcfbbe)
O            1.53871565868099       -2.85927666670365        1.35386034274506
P            2.03508126952873       -1.68988685482237        0.61000267625885
C            3.40010912886803       -0.81870512785848        1.43724817316987
C            4.08789236121665        0.23547173348118        0.84932750701435
C            5.11099374555322        0.85403655856260        1.54491422340795
C            5.45040563607278        0.42325636627895        2.81872708371071
C            4.76721349642283       -0.63131923461841        3.40242517203686
C            3.74129508541878       -1.25244731703952        2.71156586472092
C            2.58675276814854       -2.07670455458514       -1.08142501251811
C            2.91941766295026       -3.40042918216194       -1.33951474456513
C            3.35028923021467       -3.77244502020128       -2.60060540642993
C            3.44701180808018       -2.82132955808060       -3.60393834455263
C            3.10845538334122       -1.50126072252572       -3.34881346987224
C            2.67690485905107       -1.12430427833100       -2.08924020873129
C            0.74730168701745       -0.41326656288886        0.35555898303397
N            1.10126634729919        0.82550311611086        0.06967016085282
C            0.07575239310908        1.66619454697218       -0.12112002119173
C            0.39418036969349        3.05121171620720       -0.46278690038780
C            1.67282017502668        3.54883414711795       -0.21150768483849
C            1.98031506795874        4.85827877992922       -0.52765754654451
C            1.02023787048908        5.67901684574270       -1.10029983905143
C           -0.25051750763685        5.18744712175832       -1.35882013270962
C           -0.56646223018205        3.88027328870733       -1.04102011654508
N           -1.19804970165706        1.31762464400659       -0.02416367585872
C           -1.44551215378037        0.04036364740648        0.27524116282093
N           -2.73462774860624       -0.36442672200906        0.37961054547110
C           -3.17442798750456       -1.69270192628577        0.51566650649534
C           -2.45400070777976       -2.86977794592204        0.63299272584572
C           -3.16366152281336       -4.05638285956484        0.73535947574079
C           -4.55305643473421       -4.08091488425253        0.72302334268499
C           -5.27651790343977       -2.90806852093396        0.61013022966061
C           -4.58380527733378       -1.71102988649313        0.50641190829269
C           -5.02583330115272       -0.34418641643309        0.38254002521307
C           -6.28774323841563        0.22986837939957        0.34110235566825
C           -6.38460758646130        1.60557270206323        0.23967006653313
C           -5.24131648171484        2.39399636149382        0.19135353691641
C           -3.97283229621913        1.83658703680121        0.23004746827381
C           -3.86993825988471        0.45861196261300        0.31310239184006
N           -0.47865172069460       -0.86676230472143        0.46587085902843
H            3.81810329552945        0.56490350975277       -0.14164366135786
H            5.64805608946694        1.67392253217888        1.09114667828909
H            6.25090627145297        0.90951630091388        3.35603242276405
H            5.03163479890266       -0.97054600077721        4.39301795428253
H            3.19373291404368       -2.07969449280376        3.14262721866648
H            2.82430639732301       -4.12362755898101       -0.54128238036881
H            3.60817072441233       -4.80188168916751       -2.79960370510945
H            3.78123634281378       -3.10924825456553       -4.58935117354881
H            3.17747232378146       -0.76271397480018       -4.13392269353686
H            2.39806601024689       -0.09894187848566       -1.88889139333689
H            2.40401499880591        2.89697045371988        0.24145121872767
H            2.96954401342217        5.24103925601057       -0.32625649314825
H            1.26296183027778        6.70168174394796       -1.34722822266514
H           -0.99636848512812        5.82481492498537       -1.80957580364862
H           -1.54728836313991        3.48096644607889       -1.24868727174508
H           -1.37761553253672       -2.86917062786184        0.65387600421432
H           -2.61494397943850       -4.98146340349645        0.82957045503952
H           -5.06933556353109       -5.02538179705200        0.80558059406699
H           -6.35530830950456       -2.91729514700708        0.60246913522068
H           -7.17039684477161       -0.38827978790556        0.39163513210018
H           -7.35617043688874        2.07462217045872        0.20465709475039
H           -5.33817600999574        3.46725939697998        0.12549004346943
H           -3.09345342968328        2.45602646966541        0.20437616323349
