45
 energy: -74.353785598472 gnorm: 0.000052536057 xtb: 6.7.1 (edcfbbe)
C            4.55544938978996        0.00908539148093        2.75750776120422
C            4.89141256565563       -0.90937522125108        1.77439525378512
C            4.54323790229082       -0.66626290967999        0.45636560068884
C            3.86834396040561        0.49736866851572        0.14275661068916
C            3.53005449136704        1.42048448851515        1.11222696199549
C            3.87861058502368        1.17344969303484        2.43002544695709
S            3.37165315222386        0.77390545592139       -1.56120635088590
O            2.96747629135196        2.14726325926848       -1.70843925550541
O            4.38765992327416        0.25771155014727       -2.43891830278249
C            1.90783447601691       -0.26194494060438       -1.70567256903599
C            1.94952101964886       -1.43099580084510       -2.43853023984489
C            0.80482713843808       -2.20906644994453       -2.52066045771172
C           -0.35633880784783       -1.81052602302056       -1.88384979375541
C           -0.38766444645960       -0.63033569456678       -1.13870325542894
C            0.76789811461832        0.14300276278812       -1.04501448776027
N           -1.56022013858836       -0.22148001777677       -0.50384417225896
C           -2.10344849138124        1.05261294405945       -0.55542082089611
C           -1.66755297496399        2.17448730440095       -1.24521818390029
C           -2.42703978439198        3.32539315011376       -1.14742453503573
C           -3.59711261019578        3.36515202444790       -0.39285006219517
C           -4.04868416563550        2.24432127246890        0.27451066922041
C           -3.30206818700287        1.07627607069454        0.19180647789041
C           -3.48069077278652       -0.24563986956118        0.72601439454751
C           -4.44520082467029       -0.82024336931042        1.54280921360598
C           -4.30258595267171       -2.14532066284282        1.90352516398148
C           -3.20610779081900       -2.88895702688191        1.47467643029439
C           -2.23371631379934       -2.33841736434994        0.66081095030613
C           -2.38691570266336       -1.01598622000985        0.27117497947684
H            4.82804944179281       -0.18186204551971        3.78480658471445
H            5.42492364628590       -1.81081769447944        2.03525636708328
H            4.80079791879497       -1.35220339216907       -0.33526598885857
H            3.01760957478039        2.32271823896824        0.81679520393813
H            3.62535122042482        1.88775950664958        3.19872844353652
H            2.86429317962733       -1.70022783475677       -2.94137888091341
H            0.81230950568511       -3.12149284255753       -3.09733903184754
H           -1.25684521559392       -2.39821158920494       -1.97876911556407
H            0.78252001417341        1.05435072258605       -0.46898333941901
H           -0.77254627626751        2.15599626282804       -1.84792558232297
H           -2.10536195133312        4.21274800086897       -1.67158025995506
H           -4.16034749548287        4.28480684776116       -0.33985057202065
H           -4.96430711871102        2.26798552747203        0.84575076508771
H           -5.28451476422640       -0.23720254700370        1.89019064096719
H           -5.04280794272337       -2.61268129990687        2.53548615058269
H           -3.11039117060373       -3.91809309168590        1.78777579425202
H           -1.37736361286228       -2.91953723506844        0.35345039309328
