45
 energy: -74.243578261741 gnorm: 0.000074356113 xtb: 6.7.1 (edcfbbe)
C            3.21905450638239        3.07824529516539        0.73393836915214
C            2.87816549098574        2.83035098001000       -0.58725330412036
C            2.90583899959106        1.53470856662030       -1.07480615405134
C            3.27934114985221        0.50314910573056       -0.23243284943132
C            3.62310160640147        0.73925291507804        1.08640448483519
C            3.59652722291908        2.03573102729163        1.56940389612138
S            3.18100812121994       -1.19371777092555       -0.80801507608059
O            2.98714854143104       -1.18670989423692       -2.23416729461994
O            4.26938943554317       -1.96259903494852       -0.26643799591492
C            1.65905886244963       -1.70165753789460       -0.00489736416317
C            1.63435141140738       -2.74510276752404        0.91688000241914
C            0.43915816454242       -3.03637141783680        1.56013654040544
C           -0.69543862890547       -2.28851991513448        1.31906367685705
C           -0.65373887519448       -1.21694020273649        0.40226255215913
C            0.54166708200409       -0.94603910261386       -0.26719308810696
N           -1.75937088374571       -0.41071509954180        0.18465327896793
C           -3.04985086611192       -0.81023302054150       -0.00647541821397
C           -3.58904262303951       -2.08406592959973       -0.08615728193824
C           -4.94850435562274       -2.20423481384724       -0.31978053897537
C           -5.76438902833730       -1.05382673786906       -0.47335009723538
C           -5.25345370254406        0.21502508205855       -0.42224688203537
C           -3.86932157615587        0.37907675545920       -0.20764286033880
C           -3.01220545494170        1.48637512676673       -0.13794129207009
C           -3.20943481757779        2.88358689496334       -0.24229406266191
C           -2.11737692334318        3.72622187074048       -0.03627490378416
C           -0.86887719211643        3.23310988636046        0.26604501661271
C           -0.64359051845556        1.82370613069645        0.36302589757010
C           -1.70267830514483        0.99396958837701        0.12535342402130
H            3.19520386220851        4.08827586881563        1.11530390917045
H            2.58930815355513        3.64403625194549       -1.23539382495610
H            2.65513443384214        1.30394655407314       -2.09852965918632
H            3.91511004000214       -0.09300685878607        1.70772918254169
H            3.86639547657047        2.23606868760146        2.59532027105015
H            2.53904435644331       -3.29988996476593        1.10084919145410
H            0.39938501405214       -3.84520174550628        2.27416470384286
H           -1.60657762231311       -2.48015981697705        1.86365772964234
H            0.58498318823479       -0.17533084716758       -1.02069941250759
H           -2.96716432445657       -2.96038317275546        0.01048910159820
H           -5.39750536880824       -3.18090732583664       -0.39440805604541
H           -6.82063078733049       -1.19856092124331       -0.64808136625622
H           -5.88378589779676        1.08054728316421       -0.55162551728256
H           -4.18338506004064        3.27955716001697       -0.47840429813902
H           -2.26070672515739        4.79423516270374       -0.11199070871884
H           -0.03712846778638        3.89676703363216        0.43585439555533
H            0.33453475613279        1.45957836455876        0.63593461953431
