  45
        -74.35559245
 C          3.1401780313        3.1173918194        0.5577402000
 C          2.9510164367        2.7926604794       -0.7762427811
 C          3.0101766927        1.4676076818       -1.1776500297
 C          3.2617400727        0.4894325564       -0.2360679325
 C          3.4525503803        0.8011459596        1.0966119941
 C          3.3947607364        2.1263251448        1.4943701808
 S          3.2169947773       -1.2455244281       -0.7089061109
 O          3.0865231494       -1.3329252408       -2.1385518549
 O          4.2953058269       -1.9543775082       -0.0744267055
 C          1.6681031650       -1.7400020991        0.0645767276
 C          1.6145926265       -2.7811243256        0.9686546215
 C          0.4092883230       -3.0584729336        1.5967501377
 C         -0.7050415345       -2.2766255990        1.3498135169
 C         -0.6387682510       -1.2209741784        0.4396824406
 C          0.5605185860       -0.9723121608       -0.2236572573
 N         -1.7353021275       -0.3886770864        0.2147991843
 C         -3.0389137691       -0.7817853009       -0.0310458015
 C         -3.5688314914       -2.0566786864       -0.1628250322
 C         -4.9185703297       -2.1685305953       -0.4391562391
 C         -5.7258473471       -1.0438996819       -0.5916770979
 C         -5.1979623151        0.2276308731       -0.4890457178
 C         -3.8443562445        0.3650958785       -0.2117168145
 C         -2.9790191585        1.5026942285       -0.0624761436
 C         -3.1904374488        2.8741211894       -0.1130231755
 C         -2.1184984161        3.7171933221        0.1028885281
 C         -0.8538050042        3.2077557345        0.3866730191
 C         -0.6192749363        1.8469252805        0.4443637975
 C         -1.6858914302        0.9949007712        0.1959386042
 H          3.0915251467        4.1497109335        0.8712209007
 H          2.7542401731        3.5677540254       -1.5010904329
 H          2.8703995166        1.1744069477       -2.2066317491
 H          3.6507608429        0.0059943780        1.7987039553
 H          3.5435235921        2.3869505267        2.5314026546
 H          2.5092707842       -3.3491854309        1.1664202835
 H          0.3443725794       -3.8726316900        2.3024346868
 H         -1.6277018313       -2.4630838008        1.8781526531
 H          0.6291866532       -0.1909512253       -0.9639729066
 H         -2.9488814777       -2.9352135620       -0.0691589548
 H         -5.3556777014       -3.1504344779       -0.5432332865
 H         -6.7764783115       -1.1734227093       -0.8038500007
 H         -5.8190979417        1.0997479465       -0.6256632387
 H         -4.1752775296        3.2679027702       -0.3130359513
 H         -2.2604524438        4.7867456531        0.0632821511
 H         -0.0352473178        3.8877794668        0.5702550477
 H          0.3628970307        1.4701172211        0.6882681504
