45
 energy: -74.244027500200 gnorm: 0.000148075150 xtb: 6.7.1 (edcfbbe)
C            4.06821865994177        2.49529871958580        1.44287645976002
C            3.30524443180734        2.66126151402468        0.29468734566376
C            3.02247985288769        1.57361824360137       -0.51060425746536
C            3.51493622538362        0.32612439151996       -0.16075472307292
C            4.27710783578872        0.14880529517791        0.98241138339461
C            4.55853898363477        1.24087312515936        1.78193831666764
S            3.01890116574239       -1.10545755136395       -1.11197922974644
O            2.62136276308046       -0.67491773316699       -2.42808037516820
O            4.01281036939967       -2.13865492035090       -0.98948218914070
C            1.57080043841431       -1.55804013963007       -0.18414334694608
C            1.63273335392699       -2.54578724033589        0.82512481496537
C            0.50332727897700       -2.79296956364670        1.58150798528640
C           -0.66161460146069       -2.07176872130963        1.39316372557934
C           -0.70163499047280       -1.04782831197827        0.39550296541049
C            0.43219471667148       -0.81279261984710       -0.37963751875137
N           -1.83477116025617       -0.28632482540818        0.21143619420279
C           -3.13563266294506       -0.75073415756261        0.15101938192872
C           -3.60799088600152       -2.04942165532372        0.22055858617258
C           -4.98314640902936       -2.25081738803492        0.10374619272378
C           -5.84646719536904       -1.17486348019898       -0.09178956127676
C           -5.37931915399567        0.12789190654777       -0.19217835808706
C           -4.00850228376527        0.35524885741900       -0.08508994230027
C           -3.18682831913183        1.51698043411586       -0.17499229894070
C           -3.44164855783248        2.87051831165492       -0.39160268922591
C           -2.37495003299681        3.75841324362507       -0.36970226004921
C           -1.07284533532851        3.33380921811120       -0.11830527034922
C           -0.78974508634695        1.98290987977866        0.09030678046143
C           -1.84111410458647        1.08597490801942        0.02446220286464
H            4.28612420679931        3.34572692190138        2.07119788497133
H            2.93498287423735        3.64023338182625        0.02854886637440
H            2.44885440700160        1.67143601597869       -1.41908631609776
H            4.64900872008459       -0.83695552755686        1.21257304527085
H            5.15984303983342        1.11856464279390        2.67032754864423
H            2.54950051911861       -3.09439915644537        0.95537417023529
H            0.53353793683233       -3.54855810070303        2.35266148501249
H           -1.51008335630128       -2.20189998891974        2.04453260900356
H            0.40185397103670       -0.10860765319362       -1.19655618822505
H           -2.93765738800144       -2.88666295170809        0.33536030748464
H           -5.37804382887011       -3.25257227992810        0.15457452643245
H           -6.90618259890433       -1.36367899517690       -0.18032402866819
H           -6.05937164195492        0.94881391888562       -0.35613314675482
H           -4.44755680354509        3.21742543131977       -0.56751350396578
H           -2.56059609392443        4.80947859048140       -0.53502735011694
H           -0.27175832907383        4.05373248469466       -0.07603579975822
H            0.21691317762793        1.66287817054090        0.31273048667477
