  50
        -71.61895504
 C         -7.4489276179        2.2079075430       -0.6015137945
 C         -6.5284298338        1.7384174673        0.3928138362
 C         -5.6145131239        0.7028026684        0.2206496688
 C         -5.5191791852       -0.0003598160       -1.0111449213
 C         -4.6179090742       -1.0185529355       -1.1752214629
 C         -3.7679816094       -1.3994570582       -0.1332962266
 C         -2.7968146785       -2.5359131621       -0.3192843671
 O         -1.6556559119       -2.4695408191        0.5069343954
 C         -0.7545145016       -1.4661688981        0.2993775378
 C          0.3701947771       -1.4801543201        1.1253537652
 C          1.3455205835       -0.5182929857        0.9918486682
 C          1.2428876609        0.4892691266        0.0340728473
 C          2.3399954755        1.5388642261       -0.0354269057
 C          2.1526248028        2.4659178298        1.1737143377
 C          2.2753805127        2.3906154184       -1.3111752373
 C          3.6869461980        0.8345507886       -0.0397993980
 C          4.7600176005        1.2284386071        0.7480005523
 C          5.9765744105        0.5756265367        0.6793278848
 C          6.1491984343       -0.4936436747       -0.1904092499
 O          7.3637315714       -1.1122547002       -0.2292463317
 C          5.0843111241       -0.8953340351       -0.9875010444
 C          3.8738511659       -0.2353837472       -0.9087652406
 C          0.1192053747        0.4984703030       -0.7751098133
 C         -0.8718195980       -0.4636505878       -0.6524345382
 C         -3.8495020162       -0.7247245832        1.0861847265
 C         -4.7407139009        0.3010352890        1.2651396043
 H         -7.1985888678        3.0315265926       -1.2480141942
 H         -8.4469206580        1.8098390708       -0.6701144416
 H         -6.5429789449        2.2272121746        1.3657504021
 H         -6.1769994685        0.2929311816       -1.8161796215
 H         -4.5594793289       -1.5398909446       -2.1211315039
 H         -2.5032341903       -2.6153018608       -1.3763336511
 H         -3.2784802533       -3.4794049541       -0.0320100478
 H          0.4552251600       -2.2609251866        1.8649628821
 H          2.2127823962       -0.5521236349        1.6346443405
 H          2.3142342669        1.9272509143        2.1035303373
 H          1.1342757935        2.8496936100        1.1757203852
 H          2.8343669254        3.3115494561        1.1257539269
 H          2.2842157137        1.7622492597       -2.1978995838
 H          1.3821624659        3.0104164653       -1.3199222054
 H          3.1441426661        3.0450762935       -1.3497996954
 H          4.6626414999        2.0547849164        1.4332714251
 H          6.8067310299        0.8833794346        1.2954497590
 H          7.3418440941       -1.8321402343       -0.8722930911
 H          5.2048762789       -1.7271781957       -1.6694011015
 H          3.0531527615       -0.5650903560       -1.5284848950
 H         -0.0103611287        1.2618092964       -1.5256261136
 H         -1.7335470006       -0.4079595148       -1.2987807628
 H         -3.1918680738       -1.0196177317        1.8909664427
 H         -4.7897763416        0.8174392448        2.2128318437
