  90
       -137.21263486
 C          0.3439784561       -5.6998943209        0.6352193153
 C         -0.8792062227       -5.0690081425        0.4309049069
 C         -0.9080453537       -3.7325996701       -0.0116864474
 C         -2.1851564258       -3.0463446239       -0.2432974808
 C         -3.2889121710       -3.7477271485       -0.7346880436
 C         -4.5126502200       -3.1340116094       -0.9247890741
 C         -4.6390932343       -1.7872286555       -0.6240261853
 C         -3.5278976122       -1.0655764357       -0.1571827256
 C         -2.3154959861       -1.6811674987        0.0414828261
 C         -3.8981224250        0.3760354114        0.0832879686
 C         -3.5985507277        0.9111206066        1.4605119634
 C         -3.9307733849        0.3681168325        2.6820684490
 C         -3.5684636812        1.0566748540        3.8322488013
 C         -2.8972779948        2.2677005826        3.7544844790
 C         -2.5652676162        2.8195096886        2.5275989587
 C         -2.9148129418        2.1333790140        1.3765302685
 C         -2.6877168443        2.4385674669       -0.0269064324
 C         -2.1010288983        3.5324535312       -0.6419560266
 C         -2.0134241157        3.5487655498       -2.0254793886
 C         -2.4935356733        2.4898988209       -2.7815029239
 C         -3.1019211704        1.4001462912       -2.1730843927
 C         -3.2003459318        1.3860811837       -0.7992465813
 C         -5.3784761573        0.3720731698       -0.2377968743
 C         -6.2692985494        1.4199068771       -0.1717483438
 C         -7.5871726235        1.1905204921       -0.5443995829
 C         -7.9949190955       -0.0623229636       -0.9783072818
 C         -7.1003101754       -1.1175778537       -1.0479957374
 C         -5.7839033130       -0.8971663102       -0.6746992437
 C          0.2827619487       -3.0702515265       -0.2115588199
 C          1.5466909009       -3.6675953749        0.0376931944
 C          2.7446829230       -2.9206042829       -0.0607778257
 C          4.0509677931       -3.5354163618       -0.0495304467
 C          5.2045681432       -2.8226958192       -0.0344832979
 C          5.1558507919       -1.3997431985       -0.0204649453
 C          3.8594581372       -0.7773018693       -0.0843098963
 C          2.7133840763       -1.4838852615       -0.1149945746
 C          4.0137076448        0.7300692603       -0.0702574470
 C          3.1476617935        1.3139251682        1.0185472698
 C          3.2683318323        1.1712025931        2.3834868550
 C          2.2760569005        1.7066926990        3.1938073217
 C          1.1790367762        2.3529622714        2.6432519943
 C          1.0573623762        2.5044158461        1.2715818523
 C          2.0530373064        1.9900419925        0.4577553073
 C          2.2109689286        2.0043647593       -0.9874057227
 C          1.4309923398        2.5644027166       -1.9850981178
 C          1.8507058025        2.4431372954       -3.2999102050
 C          3.0260017735        1.7773205087       -3.6154253195
 C          3.8056705838        1.2009251490       -2.6215692119
 C          3.3913659015        1.3196252137       -1.3130798488
 C          5.5028054152        0.8848526785        0.0564211751
 C          6.2381236832        2.0338921031        0.1464954316
 C          7.6298231063        1.9387292797        0.2457329041
 C          8.2618536644        0.6908347219        0.2492271794
 C          7.5429831660       -0.4752777326        0.1601564319
 C          6.1353851394       -0.4028554977        0.0635299711
 C          1.5283861495       -5.0363137998        0.4441117650
 H          0.3570681782       -6.7291980623        0.9652334526
 H         -1.7989792864       -5.5957445543        0.6300902173
 H         -3.1782685592       -4.7922850754       -0.9862045144
 H         -5.3550100868       -3.6968796756       -1.2991348877
 H         -1.4818838230       -1.1230545341        0.4427189242
 H         -4.4583714424       -0.5727267890        2.7429301882
 H         -3.8151752313        0.6450930172        4.7999029478
 H         -2.6309618271        2.7870906278        4.6638906761
 H         -2.0462816124        3.7653269867        2.4719415613
 H         -1.7302123218        4.3637597172       -0.0589850568
 H         -1.5690043077        4.3993748945       -2.5229399137
 H         -2.4048840456        2.5194703912       -3.8573984395
 H         -3.4952216519        0.5852417643       -2.7633802623
 H         -5.9505443677        2.3964222709        0.1634801861
 H         -8.3028794140        1.9979976399       -0.4972928621
 H         -9.0249685389       -0.2158796065       -1.2656333211
 H         -7.4222385939       -2.0912541633       -1.3864837794
 H          0.2452213029       -2.0724914418       -0.6174987917
 H          4.1084924401       -4.6123690041       -0.0801756628
 H          6.1626227847       -3.3214462672       -0.0328099542
 H          1.7720374251       -0.9586536899       -0.1251606248
 H          4.1128269504        0.6508272646        2.8117059300
 H          2.3532582472        1.6078305744        4.2665998234
 H          0.4078360418        2.7391070291        3.2936614547
 H          0.2000372419        3.0004481321        0.8434142792
 H          0.5128370263        3.0777660622       -1.7444184906
 H          1.2542126087        2.8737169930       -4.0911686944
 H          3.3356057105        1.7006022040       -4.6475343404
 H          4.7157471001        0.6729863519       -2.8673768473
 H          5.7552048983        3.0005197726        0.1418527298
 H          8.2230873461        2.8370278414        0.3201301387
 H          9.3392430385        0.6516806439        0.3245918234
 H          8.0343470208       -1.4364346837        0.1643473945
 H          2.4545976133       -5.5478980303        0.6493672369
