  124
       -165.95862812
 C          7.8439092128        3.1127199242        0.1634787924
 C          6.4813519868        3.6005179840       -0.3477230448
 C          6.6605198077        4.1141857894       -1.7786091792
 C          5.9820785446        4.7677151328        0.5165313034
 C          5.4747064060        2.4656721055       -0.2549974482
 C          5.1807748554        1.9103802115        0.9888087496
 C          4.2280467377        0.9214691094        1.1338211974
 C          3.5412761399        0.4529963613        0.0218775968
 N          2.4674932014       -0.4739828078        0.1499453094
 C          2.7262442464       -1.8215927877        0.3105785834
 C          4.0527944610       -2.2427837789        0.4634071754
 C          4.3500104122       -3.5601333985        0.7121920103
 C          3.3428458283       -4.5204206491        0.8397498913
 C          3.7173148821       -5.9542148013        1.1822984828
 C          2.4993187456       -6.8771034249        1.2743099159
 C          4.4357189690       -5.9723317687        2.5390263253
 C          4.6497476063       -6.5060659754        0.0946027138
 C          2.0432549887       -4.0997712288        0.6362410097
 C          1.6890654398       -2.7793030914        0.3280121546
 B          0.2549715693       -2.2987148818        0.0063881787
 C         -1.0351300703       -3.0883540662       -0.3144298192
 C         -1.0856643528       -4.4574460671       -0.6094922327
 C         -2.2576840655       -5.1560312641       -0.8231088194
 C         -2.3015563834       -6.6408897162       -1.1499494811
 C         -3.1446872443       -7.3685961151       -0.0931714784
 C         -2.9355300237       -6.8247456563       -2.5360200992
 C         -0.9121529699       -7.2837689241       -1.1685109355
 C         -3.4531556911       -4.4385421727       -0.7282088321
 C         -3.4568672964       -3.0861279806       -0.4902383882
 C         -2.2582287050       -2.3833169797       -0.3177117292
 N         -2.3069451297       -1.0119590007       -0.1597942573
 C         -3.5618917881       -0.3452143164       -0.0578875945
 C         -4.0180348631        0.0617846036        1.1862332310
 C         -5.1629043576        0.8305127442        1.2940498096
 C         -5.8814484805        1.2138653956        0.1683920167
 C         -7.0961775090        2.1247729246        0.2347221651
 C         -7.4409714205        2.5434359688        1.6662112418
 C         -6.7925095557        3.3957205656       -0.5724407033
 C         -8.3114256950        1.4013002110       -0.3612797706
 C         -5.4345235297        0.7572003691       -1.0699446401
 C         -4.2919606304       -0.0087829657       -1.1898462432
 C         -1.1923588254       -0.2043687587       -0.0949637319
 C         -1.3388507891        1.1798250747       -0.1397295310
 C         -0.2298782930        2.0004197056        0.0207308802
 N         -0.3893028438        3.3919129213        0.0342609586
 C          0.6306684967        4.2152269432       -0.4526058269
 C          0.9333889501        5.4184361053        0.1846481188
 C          1.9579137341        6.2177683251       -0.2841168381
 C          2.7007749526        5.8332347452       -1.3882256960
 C          2.4003989425        4.6422539649       -2.0295522461
 C          1.3732353237        3.8412046334       -1.5736783885
 C         -1.5642549145        3.9548236287        0.5419386233
 C         -2.2022187814        3.3970206941        1.6507117173
 C         -3.3799056341        3.9391589915        2.1244317107
 C         -3.9380638983        5.0505443240        1.5139174549
 C         -3.3019451405        5.6185128629        0.4220656842
 C         -2.1279860522        5.0776024198       -0.0646686520
 C          1.0350882617        1.4461499604        0.1666511738
 C          1.1999799377        0.0647913064        0.1024312988
 C          0.0852782715       -0.7926706178        0.0029836976
 C          3.8503385257        0.9660771920       -1.2284068709
 C          4.8044298414        1.9586204762       -1.3612544542
 H          7.7859134135        2.7852359680        1.1977551602
 H          8.1945321702        2.2774829942       -0.4394400753
 H          8.5762437035        3.9147357804        0.1010130312
 H          5.7220705893        4.4962827466       -2.1728864361
 H          7.0338614871        3.3307997111       -2.4341922637
 H          7.3838631386        4.9271298485       -1.7834221639
 H          6.6583951466        5.6152469043        0.4275241752
 H          4.9906812857        5.0774203354        0.1907310586
 H          5.9239122013        4.4893826627        1.5650429776
 H          5.6893155286        2.2643682533        1.8726853562
 H          3.9968074133        0.5203754880        2.1098581121
 H          4.8563539776       -1.5239536955        0.3946759388
 H          5.3874416281       -3.8378096937        0.8270466480
 H          2.8240954909       -7.8824564361        1.5365472568
 H          1.9805567726       -6.9308182880        0.3200805807
 H          1.8065024274       -6.5371291472        2.0407625973
 H          3.7848767532       -5.5705764950        3.3131866320
 H          5.3426758550       -5.3742678182        2.5134394872
 H          4.7066508615       -6.9912388126        2.8093478418
 H          4.9096718296       -7.5404679904        0.3114219124
 H          5.5694684968       -5.9310896886        0.0316997164
 H          4.1580355252       -6.4693737877       -0.8754079225
 H          1.2372129775       -4.8049718143        0.7371818583
 H         -0.1429071500       -4.9689077541       -0.6916003149
 H         -4.1707228795       -7.0118235768       -0.0880667471
 H         -2.7236257937       -7.2096196805        0.8974781622
 H         -3.1589729519       -8.4379789981       -0.2949863418
 H         -2.3451618196       -6.3072750225       -3.2894245923
 H         -2.9777937380       -7.8808716129       -2.7953015535
 H         -3.9459498811       -6.4260978892       -2.5633016017
 H         -0.4349821441       -7.2010539608       -0.1947667792
 H         -0.2757266359       -6.8226182042       -1.9203859385
 H         -1.0036940138       -8.3415756051       -1.4090453568
 H         -4.4017642700       -4.9374605484       -0.8611226858
 H         -4.3992855277       -2.5595851489       -0.4462462662
 H         -3.4557783326       -0.2070451423        2.0685236000
 H         -5.4769077266        1.1381389002        2.2773943243
 H         -8.3128443650        3.1944229657        1.6525992363
 H         -7.6782111322        1.6791055180        2.2823478219
 H         -6.6182437602        3.0924147961        2.1177980918
 H         -7.6266766139        4.0908631627       -0.5046236464
 H         -6.6241430971        3.1686382627       -1.6214620025
 H         -5.9006345116        3.8827277674       -0.1821723078
 H         -9.1889028254        2.0426014898       -0.3134578288
 H         -8.5185197679        0.4908668032        0.1974568513
 H         -8.1440096305        1.1325641429       -1.4005004176
 H         -5.9723030964        1.0180403521       -1.9687681341
 H         -3.9461449520       -0.3312965551       -2.1610648820
 H         -2.3055165061        1.6317313101       -0.2911607166
 H          0.3638398211        5.7167349306        1.0528680003
 H          2.1847829691        7.1438361090        0.2239504051
 H          3.5022552383        6.4604587816       -1.7494763751
 H          2.9631722245        4.3392131494       -2.9004378795
 H          1.1364961260        2.9180995302       -2.0810760721
 H         -1.7666220067        2.5359795747        2.1349451454
 H         -3.8593452256        3.4960280137        2.9851422342
 H         -4.8574158597        5.4754631300        1.8888257314
 H         -3.7297478385        6.4844480397       -0.0620569673
 H         -1.6409580064        5.5163636517       -0.9233785583
 H          1.8782661992        2.0986498153        0.3251693333
 H          3.3220242205        0.5974674851       -2.0954884035
 H          5.0075926673        2.3383132978       -2.3485601314
