  56
  -93.2402382137000       0.485744759335436      !
 N          8.9712241479        0.8469016368       -0.8259889030
 C          7.8840259023        0.5784288427       -0.5852526542
 C          6.5499353712        0.2218001168       -0.2670774135
 N          5.5580561921        0.8943410963       -0.8626828577
 C          4.3412488980        0.5247410292       -0.5348350908
 C          4.0898727400       -0.5356793327        0.4055945165
 N          5.0645740363       -1.1970689771        0.9888691237
 C          6.3034965816       -0.8197987469        0.6546371528
 C          7.3930620951       -1.4991377061        1.2550356231
 N          8.2904252897       -2.0328271162        1.7263459770
 C          2.6575908168       -0.6934393601        0.5404891334
 C          1.8232457794       -1.5251193205        1.2500860262
 C          0.4402652748       -1.3570004821        1.1023998430
 C         -0.1338681353       -0.3974936471        0.2838688897
 C         -1.5954656470       -0.2669395028        0.2232407565
 C         -2.3890571240       -1.3875906796        0.0026511320
 C         -3.7736991720       -1.2755569814       -0.0627781096
 C         -4.6077107686       -2.4619523441       -0.3101697122
 C         -4.3229037572       -3.6714496241        0.3186418317
 C         -5.1101820647       -4.7846489427        0.0913331294
 C         -6.1902603603       -4.7087491830       -0.7717215563
 C         -6.4802612131       -3.5117344223       -1.4047372683
 C         -5.6975781865       -2.3957913903       -1.1744029651
 C         -4.3583057053       -0.0252229272        0.1100288126
 C         -3.5827629607        1.1045508199        0.3491167615
 C         -4.2158218388        2.4188583122        0.5394632117
 C         -5.3780089594        2.5438680465        1.2966983264
 C         -5.9740465346        3.7789278387        1.4710274266
 C         -5.4226556983        4.9072513234        0.8874294419
 C         -4.2678860757        4.7940815491        0.1317004088
 C         -3.6669154627        3.5608506503       -0.0387572901
 C         -2.1989436699        0.9742790779        0.4007373613
 C          0.7090299617        0.4572527934       -0.4838433567
 C          0.3321449118        1.4393634775       -1.4275698215
 C          1.2856410384        2.1795619192       -2.0887480345
 C          2.6645287906        2.0039687169       -1.8839901340
 C          3.0655263617        1.0362888712       -0.9954581579
 C          2.0839369726        0.2762609826       -0.3152017136
 H          2.2147438458       -2.2836270269        1.9099390852
 H         -0.2169534336       -1.9942240351        1.6766977909
 H         -1.9198285604       -2.3463312380       -0.1626812298
 H         -3.4917508331       -3.7321939477        1.0061543024
 H         -4.8824005776       -5.7145884223        0.5914202194
 H         -6.8047154564       -5.5788165040       -0.9491778698
 H         -7.3197589375       -3.4478367013       -2.0815551752
 H         -5.9188778629       -1.4688668966       -1.6835304516
 H         -5.4329459020        0.0692474179        0.0615871033
 H         -5.8034727699        1.6698056268        1.7680405754
 H         -6.8720663083        3.8621098992        2.0655652111
 H         -5.8907699762        5.8710473411        1.0213565871
 H         -3.8349108705        5.6703769399       -0.3282866401
 H         -2.7745985135        3.4784623392       -0.6427077022
 H         -1.5881619290        1.8354415264        0.6295651388
 H         -0.7140464358        1.5969603431       -1.6436321308
 H          0.9658256092        2.9234850384       -2.8036789666
 H          3.3809436072        2.6044545330       -2.4223594221
  56
  -93.2400219965000       0.386403968881554      !
 N          8.9779636193        0.8622493958       -0.7370081484
 C          7.8883467604        0.5791664806       -0.5222159677
 C          6.5509942630        0.2185622078       -0.2223611514
 N          5.5649453199        0.8985703912       -0.8192854841
 C          4.3450049369        0.5255830604       -0.5069836251
 C          4.0846928953       -0.5440958046        0.4206534220
 N          5.0537266457       -1.2139421624        1.0039873310
 C          6.2957053144       -0.8353033512        0.6831307083
 C          7.3794324568       -1.5212025135        1.2864874938
 N          8.2717106055       -2.0742649623        1.7433384680
 C          2.6513092578       -0.7008473479        0.5426434936
 C          1.8104799714       -1.5385140971        1.2374714874
 C          0.4290603885       -1.3656214025        1.0818368674
 C         -0.1376691142       -0.3962438273        0.2693682764
 C         -1.5990367196       -0.2644434771        0.2041288091
 C         -2.3917749645       -1.3829766636       -0.0303257813
 C         -3.7761677056       -1.2707636749       -0.1003204524
 C         -4.6076674737       -2.4565974016       -0.3584055644
 C         -5.6904549513       -2.3872659282       -1.2312845983
 C         -6.4680912448       -3.5034917901       -1.4768684078
 C         -6.1803346160       -4.7042112137       -0.8499380624
 C         -5.1082949119       -4.7830615646        0.0230524000
 C         -4.3257584287       -3.6695160525        0.2650303975
 C         -4.3620999557       -0.0218795664        0.0791200292
 C         -3.5874046807        1.1047539310        0.3350147810
 C         -4.2202540229        2.4174241494        0.5387697403
 C         -3.7715546655        3.2746273304        1.5405996278
 C         -4.3687565723        4.5069796673        1.7304865318
 C         -5.4177497785        4.9050932762        0.9187443461
 C         -5.8694223520        4.0615177544       -0.0825923016
 C         -5.2780336461        2.8260196780       -0.2696803847
 C         -2.2040289920        0.9741182140        0.3937639782
 C          0.7120456041        0.4654064184       -0.4832263345
 C          0.3439075457        1.4598304076       -1.4179066287
 C          1.3043424806        2.2040183052       -2.0649237514
 C          2.6812632056        2.0221471669       -1.8532771864
 C          3.0737348229        1.0441209935       -0.9718553161
 C          2.0854762249        0.2789872615       -0.3070043584
 H          2.1956705641       -2.3044013684        1.8926729200
 H         -0.2334700558       -2.0074656558        1.6449994997
 H         -1.9219884496       -2.3402557675       -0.2024930215
 H         -5.9099075775       -1.4572789107       -1.7355431583
 H         -7.3025455769       -3.4368477870       -2.1596446392
 H         -6.7907098380       -5.5746343666       -1.0390834451
 H         -4.8818604358       -5.7161973323        0.5179041550
 H         -3.4979190509       -3.7338605367        0.9563775165
 H         -5.4382896634        0.0667094530        0.0620924681
 H         -2.9638610340        2.9629301479        2.1871204098
 H         -4.0152654318        5.1593136015        2.5158470994
 H         -5.8820158799        5.8687849501        1.0664066723
 H         -6.6854364201        4.3681878116       -0.7206116997
 H         -5.6228061213        2.1793026335       -1.0636807206
 H         -1.5926507148        1.8397987049        0.6029161105
 H         -0.7000539529        1.6276045698       -1.6367757820
 H          0.9906519761        2.9571569574       -2.7729791889
 H          3.4030279235        2.6261260303       -2.3806914344
  56
  -93.2389768055000       0.127851271783010      !
 N          8.8988324494        0.2232394574       -1.3392021673
 C          7.8220614688        0.1072523232       -0.9649846932
 C          6.5070867890       -0.0578835958       -0.4630418653
 N          5.5345336974        0.7001080865       -0.9831941756
 C          4.3296583863        0.4888491221       -0.5049116470
 C          4.0715386346       -0.4958478485        0.5126965381
 N          5.0285957700       -1.2337939492        1.0298383651
 C          6.2554132836       -1.0172945722        0.5430040783
 C          7.3229931976       -1.7961596922        1.0558539181
 N          8.1997360736       -2.4161689506        1.4545973184
 C          2.6485626180       -0.5165156347        0.7744167844
 C          1.8107124142       -1.2494151146        1.5818125612
 C          0.4321694459       -1.0236502650        1.4788226375
 C         -0.1328802317       -0.0937229315        0.6205738744
 C         -1.5955185338       -0.0183254280        0.4946798687
 C         -2.2856893328       -1.1930977160        0.2146082964
 C         -3.6610057673       -1.1830416629        0.0157756722
 C         -4.3587223567       -2.4311362832       -0.3289283187
 C         -4.0372785617       -3.6219266726        0.3178701015
 C         -4.6687619091       -4.8019184072       -0.0272949117
 C         -5.6263671000       -4.8113570721       -1.0276186024
 C         -5.9559806095       -3.6319507304       -1.6740838444
 C         -5.3304872927       -2.4491749023       -1.3256845864
 C         -4.3455570879        0.0221919912        0.1223342670
 C         -3.6772787675        1.2046782234        0.4261618966
 C         -4.4277654599        2.4665243389        0.5263801272
 C         -5.6751467528        2.5017969169        1.1456733301
 C         -6.3948325429        3.6800498825        1.2127939355
 C         -5.8825385163        4.8417041157        0.6597129052
 C         -4.6412680722        4.8195565628        0.0465033912
 C         -3.9180297738        3.6430141681       -0.0175521739
 C         -2.2968617604        1.1770936053        0.6056916173
 C          0.7155492078        0.7019673048       -0.2015477104
 C          0.3451488058        1.6687389314       -1.1634642226
 C          1.3015206789        2.3155798181       -1.9125025871
 C          2.6751468339        2.0454253740       -1.7926504076
 C          3.0679119163        1.0956550496       -0.8812577114
 C          2.0856318325        0.4496325499       -0.0925003625
 H          2.1946319204       -1.9920134137        2.2639425211
 H         -0.2305621952       -1.6085627484        2.1007893073
 H         -1.7343970260       -2.1146795398        0.0988925236
 H         -3.2997143054       -3.6171685221        1.1074048299
 H         -4.4116282432       -5.7180527098        0.4840420567
 H         -6.1134779462       -5.7349627485       -1.3025409146
 H         -6.7009829966       -3.6346126622       -2.4562285551
 H         -5.5776306352       -1.5348428662       -1.8456211501
 H         -5.4135902983        0.0416182379       -0.0360114470
 H         -6.0744057466        1.6025303636        1.5918932375
 H         -7.3602066534        3.6921913360        1.6973950191
 H         -6.4478537420        5.7605025771        0.7073489579
 H         -4.2360289962        5.7229462193       -0.3855566544
 H         -2.9568203244        3.6320922673       -0.5111145687
 H         -1.7720740324        2.0821359574        0.8754676328
 H         -0.6998776922        1.8889250895       -1.3219279388
 H          0.9869706425        3.0516132934       -2.6380231550
 H          3.3925899806        2.5608676115       -2.4119145911
