  53
        -84.77266666
 N         -5.5781765239       -3.4206190523       -0.3794850483
 C         -4.4934168675       -3.0441018140       -0.2233855138
 C         -3.2056078810       -2.5851305103       -0.0034904467
 C         -2.2050907478       -3.4558045461        0.5640123946
 C         -0.9322175834       -3.0219126057        0.7378507558
 C         -0.5614686257       -1.6896461129        0.4173942360
 N          0.6814124003       -1.1933209205        0.7554477305
 C          0.9171379076        0.0525686678        1.3174267657
 C          0.0284517817        0.9066408657        1.9513754867
 C          0.5166156216        2.1092124224        2.4337895769
 C          1.8657483967        2.4388994635        2.3095593220
 C          2.7715646930        1.5566176983        1.7483800113
 C          2.3058308751        0.3405196556        1.2662789888
 C          2.9361283743       -0.8088160455        0.6923703683
 C          4.2520331660       -1.1228882991        0.3797939600
 C          4.5205814820       -2.3375747304       -0.2233793598
 C          3.4961541626       -3.2340917379       -0.5326267604
 C          2.1776795746       -2.9476997762       -0.2255245635
 C          1.9010045418       -1.7420342497        0.4033046719
 C         -1.5523349971       -0.8289016694       -0.1989167330
 N         -1.1593797152        0.4267354085       -0.6615619284
 C          0.0192729722        0.6958357028       -1.3371334530
 C          0.8845724528       -0.1806833378       -1.9748689083
 C          2.0078843119        0.3494985325       -2.5838429059
 C          2.2479903863        1.7208696958       -2.5878467394
 C          1.3518934744        2.6048439124       -2.0139285259
 C          0.2206531741        2.0944690604       -1.3945376958
 C         -0.9103555312        2.6939119286       -0.7433886253
 C         -1.2691348073        4.0056272451       -0.4713636684
 C         -2.4423168268        4.2416589067        0.2217657630
 C         -3.2456524668        3.1889710272        0.6563537581
 C         -2.9101505186        1.8732552213        0.3956691925
 C         -1.7449140285        1.6292952932       -0.3189915554
 C         -2.8353769805       -1.2746586213       -0.3777208540
 H         -2.4982932096       -4.4536036594        0.8504606486
 H         -0.1939253522       -3.6616595210        1.1978460989
 H         -1.0090560472        0.6385668300        2.0840918996
 H         -0.1593500737        2.7973911183        2.9170152844
 H          2.2099568742        3.3913919955        2.6831691268
 H          3.8207819168        1.8020926042        1.6904293026
 H          5.0453185709       -0.4242741171        0.5969261730
 H          5.5387075875       -2.5975947972       -0.4719872279
 H          3.7356830945       -4.1650727655       -1.0228129624
 H          1.3922003194       -3.6414312356       -0.4831871220
 H          0.6860783008       -1.2413278632       -2.0078043844
 H          2.7063854885       -0.3151608273       -3.0687715166
 H          3.1389014371        2.0982484393       -3.0664779611
 H          1.5234651183        3.6696526956       -2.0490574823
 H         -0.6385292566        4.8215566479       -0.7892859759
 H         -2.7404191574        5.2562541974        0.4393818190
 H         -4.1479785897        3.4039370990        1.2082108033
 H         -3.5347491392        1.0661506202        0.7463738515
 H         -3.5619481716       -0.6485111146       -0.8744232833
