53
 energy: -84.776374383357 gnorm: 0.000061625034 xtb: 6.7.1 (edcfbbe)
N           -5.58186032065151       -3.42669729336005       -0.36535169767654
C           -4.49469001780454       -3.04778426114352       -0.21500400918520
C           -3.21399273000958       -2.58632223267523        0.00643468532459
C           -2.20346166099297       -3.46051563313428        0.57406313367689
C           -0.93165618205819       -3.03000058577509        0.73285854612530
C           -0.55964056769807       -1.69482395067036        0.40693570697055
N            0.68039371115142       -1.19514453568547        0.75276979428393
C            0.91252501128367        0.04841493938803        1.31855292247032
C            0.02030666515521        0.90033371848458        1.95319770852050
C            0.50500483756017        2.10241799045567        2.43451879013038
C            1.85280399255965        2.43718038376117        2.31301080665921
C            2.76103392122172        1.55692551963612        1.75275676640370
C            2.29760700733088        0.34287883083599        1.26813058530327
C            2.93316711947359       -0.80426458476406        0.68729810462916
C            4.24899895022793       -1.10826063484509        0.37166761241772
C            4.52407896106314       -2.32116498582823       -0.23274263915436
C            3.50346516395458       -3.22074647127449       -0.53983620029802
C            2.18445006006029       -2.94129797020885       -0.23376190529976
C            1.90285905598330       -1.73759071947147        0.39777506763621
C           -1.56029217386271       -0.82898347545584       -0.20634318039268
N           -1.16395648163716        0.42628343418134       -0.66733562340367
C            0.01482576850388        0.69207417204359       -1.34281741188521
C            0.87608810855088       -0.18700013005907       -1.98339676295000
C            2.00299985204650        0.33912179858827       -2.58674226630306
C            2.25206708179757        1.70889216112881       -2.58420151533245
C            1.35977408320914        2.59524649422193       -2.00877824112135
C            0.22531758443639        2.08854662458329       -1.39378410665127
C           -0.90326750927403        2.69216682171843       -0.73952587625298
C           -1.25216903808796        4.00463342912155       -0.46140928984545
C           -2.42468114705140        4.24607571611228        0.23070276664000
C           -3.23572026933327        3.19664197628227        0.65712253208939
C           -2.90881905445496        1.88029719791067        0.39169569564909
C           -1.74351514207623        1.63161793177113       -0.32134164327162
C           -2.84064464563307       -1.27087028610593       -0.37322387407541
H           -2.49905621151611       -4.45594032301201        0.86577569053272
H           -0.18918779268843       -3.66864746533710        1.18750693106475
H           -1.01642279751114        0.62913468177041        2.08408180968934
H           -0.17334167400773        2.78926318700409        2.91682061763776
H            2.19372897788612        3.39045894270093        2.68754144153812
H            3.81022553649760        1.80367927482901        1.69792030838791
H            5.03833975682272       -0.40453531950175        0.58707476162736
H            5.54295814058609       -2.57543004417891       -0.48348811954695
H            3.74692242853333       -4.15091402549502       -1.03019872459588
H            1.40179519226386       -3.63749808839095       -0.49283916861205
H            0.67150780629988       -1.24637182899107       -2.01975454160800
H            2.69889526900410       -0.32737281366525       -3.07320896309354
H            3.14658169622471        2.08275166043008       -3.05885802816557
H            1.53719839456344        3.65929314737199       -2.03922904833477
H           -0.61481835653767        4.81736817872226       -0.77428166528521
H           -2.71600537605147        5.26155779769481        0.45314200405611
H           -4.13841117834839        3.41497037292115        1.20736496659125
H           -3.53931999179911        1.07577091609722        0.73786515054159
H           -3.57070139579822       -0.64772513980207       -0.86830698546212
