53
 energy: -84.776360393583 gnorm: 0.000067412017 xtb: 6.7.1 (edcfbbe)
N           -5.70160029253555       -3.22596014691591       -0.30148038511820
C           -4.60082164790731       -2.88447678152936       -0.16078205582362
C           -3.30323738494739       -2.46695948776199        0.04935650570224
C           -2.31958354649756       -3.37286778152196        0.61411226598854
C           -1.03227628484768       -2.98611563755857        0.75977424774069
C           -0.61539173381649       -1.66686108399209        0.42307491617565
N            0.64884811021329       -1.21611546247762        0.74736933314622
C            0.94285448353952        0.01961166219664        1.30125158850911
C            0.09827219997128        0.91406646459221        1.94267760545230
C            0.64183451950078        2.09744074655842        2.40708958009338
C            2.00095075871256        2.37250518724827        2.26312592870527
C            2.86167681074525        1.44919269741152        1.69727390054568
C            2.33874631414003        0.25301608487577        1.22920115877148
C            2.91559283043616       -0.92458083858739        0.64817332301945
C            4.21260094546541       -1.28820613367269        0.31790467341039
C            4.42625779062161       -2.51590375501758       -0.28149413053030
C            3.36307082855336       -3.37120012833996       -0.56996913874246
C            2.06167818312265       -3.03189989202284       -0.24906801580447
C            1.84162546208433       -1.81359940870212        0.37892025998659
C           -1.59119929945692       -0.76786752562116       -0.18218387644841
N           -1.16029071914112        0.47459975036181       -0.64656010499403
C            0.01906011993491        0.70703928382928       -1.33308912088579
C            0.84942505508142       -0.19548915335068       -1.98190160743485
C            1.98553031454841        0.29896816552368       -2.59464034916421
C            2.27338455171593        1.66117119103011       -2.59363929613160
C            1.41128404984969        2.57202718080626       -2.01058791070039
C            0.26833035359136        2.09717215870590       -1.38603291690107
C           -0.83674788631389        2.73241043985841       -0.72179454878690
C           -1.14642010765095        4.05433011263876       -0.44168781818708
C           -2.30522419642759        4.32880246460222        0.26111616851128
C           -3.14067573138514        3.30257507092494        0.69673044193362
C           -2.85292522370526        1.97743381326084        0.42948237983232
C           -1.70240806807685        1.69600820179153       -0.29523475578481
C           -2.88739322768205       -1.16652133188438       -0.33711265931397
H           -2.64736483165208       -4.35556174729558        0.91441887199496
H           -0.30897463182276       -3.64794430997673        1.21216364784967
H           -0.94722025760207        0.68958316719250        2.09105573977935
H            0.00122250656565        2.81664186836918        2.89380357667902
H            2.38842382046683        3.31296854375294        2.62455760480268
H            3.91971465917667        1.64942287043857        1.62534881326275
H            5.03486918526437       -0.61861620750937        0.51845813785172
H            5.42964616002829       -2.81658123819004       -0.54311136551218
H            3.55878063929711       -4.31406192810676       -1.05745249542947
H            1.24590361419249       -3.69418085261229       -0.49450334604740
H            0.61498395265075       -1.24868656109279       -2.01712288074773
H            2.65804367502518       -0.38663381674303       -3.08740651481353
H            3.17416122781280        2.00987017823495       -3.07554591469935
H            1.61825652763331        3.63068354806209       -2.04229555892804
H           -0.48972974538657        4.84880874483777       -0.76136786618746
H           -2.56633196038594        5.35215404678265        0.48499784244941
H           -4.03147811282123        3.54614986152743        1.25566962395929
H           -3.50186135481293        1.19106688174011        0.78321828091293
H           -3.59969181444663       -0.51956744087804       -0.82749971004734
