75
 energy: -110.031056868447 gnorm: 0.000052827187 xtb: 6.7.1 (edcfbbe)
C           -5.68792879577032       -2.52077252245542       -0.34233400235215
C           -4.39946535814061       -2.66129694294342        0.45745118662109
C           -3.64482312463535       -3.93361068495582        0.08075031003172
C           -2.42566326402992       -4.18745166630826        0.97757109646255
C           -1.39274676145379       -3.11090025750443        0.82234112931375
C           -0.50434481275601       -3.13702927713074       -0.24622400133478
C            0.42879311567210       -2.13517947931717       -0.42219120526736
C            0.48901879884403       -1.08183473784490        0.48328691190471
N            1.41599647904501       -0.03995938294918        0.30697178931488
C            1.13788216487389        1.30362669917457        0.33070880907551
C           -0.19680255539243        1.84312041882314        0.56282333691957
C           -0.35912290340674        2.77375182350456        1.58604795199084
C           -1.60986498911367        3.23831318991728        1.93191135703491
C           -2.74952883647210        2.78167256638089        1.26592003034539
C           -4.06051470542699        3.20395535658700        1.63167434755110
C           -5.15164791415798        2.77166840810931        0.95833430332520
C           -5.03012585051745        1.88682348161244       -0.15306159109602
C           -6.13923209321186        1.45211118514275       -0.88069312596422
C           -5.98607736717515        0.61227846995117       -1.96834640087890
C           -4.72953870685200        0.18130278558327       -2.35199124860415
C           -3.59338492192350        0.58228790801064       -1.64799022263559
C           -2.28011598230343        0.18806270496650       -2.03441336085352
C           -1.19050962848790        0.59604442208149       -1.34412740746100
C           -1.30841824503661        1.42597185603804       -0.19051603462887
C           -2.59746168991111        1.88111928861830        0.18237202244274
C           -3.73867640285908        1.44651242566695       -0.53529099023842
N            2.22033051382405        2.01370703599306        0.15448020646867
C            3.25192690669368        1.13530155483931       -0.00167663187900
C            4.61121017054028        1.61967300637530       -0.18691400257439
C            5.72162073255574        0.87706157436798        0.21001256981706
C            6.99637636253806        1.37474135867761        0.01673603222247
C            7.18259873747377        2.61822767591237       -0.56470854969290
C            6.08264691377133        3.37140556834984       -0.94213259117630
C            4.80633904250691        2.87883877167877       -0.75299282732499
C            2.77004915376180       -0.16086004299351        0.08394223670510
C            3.43972631868782       -1.45027027109545       -0.01700894695438
C            3.21529646324368       -2.44885781179648        0.92915827204153
C            3.85048698011271       -3.67133073163927        0.81636313694084
C            4.71560262248009       -3.91391112581806       -0.23726759587315
C            4.94739841198275       -2.92446207238104       -1.17950087090140
C            4.31403597568713       -1.70143467348015       -1.07396708959428
C           -0.38678899959649       -1.04831698817439        1.56134242383327
C           -1.31929830429121       -2.05444007856332        1.72095798508847
H           -6.35254606227453       -3.36032694338226       -0.14786642140986
H           -5.47241982383681       -2.49300023965886       -1.40776406114193
H           -6.20367520273733       -1.60147485763177       -0.07623182170513
H           -3.76358284403400       -1.79117985384426        0.27866137750915
H           -4.63964598994146       -2.68554295800661        1.52303178318876
H           -4.32100887307187       -4.78801604271000        0.16329230230372
H           -3.31895612646301       -3.86377448385215       -0.95931625611196
H           -1.98851620006921       -5.15222003968125        0.70996982873832
H           -2.75387434061939       -4.23833457923596        2.01758955419211
H           -0.54456281404528       -3.95355464953158       -0.95246960157620
H            1.10951357316474       -2.16348226433128       -1.26011889640087
H            0.51844028577249        3.11042393815853        2.11740604647598
H           -1.71885762831086        3.95047637056007        2.73721882811688
H           -4.15986626788865        3.88477293338730        2.46541805001459
H           -6.14207947776417        3.09791815237329        1.24308924252518
H           -7.12468071961564        1.78549561545684       -0.58758316950222
H           -6.85552414378188        0.29148050661936       -2.52392835605834
H           -4.61605370282268       -0.46797961413531       -3.20849984757471
H           -2.17227365338573       -0.43520487293653       -2.91090076176924
H           -0.20342669062923        0.32497184796811       -1.68656173057415
H            5.58557463595232       -0.08476854264281        0.68190872670251
H            7.85087352503068        0.79025380665045        0.32690251070474
H            8.18139804963684        3.00142102763685       -0.71561482932707
H            6.22293432296337        4.34658454355032       -1.38610177703603
H            3.93944999872844        3.45543266371152       -1.03656310742128
H            2.55155098586900       -2.26118095132825        1.76114348669878
H            3.67086824391065       -4.43692428131489        1.55704876321104
H            5.21021241183388       -4.87009049727969       -0.32290347804662
H            5.62238907510095       -3.10875253038500       -2.00242197858922
H            4.49020286476350       -0.92867419904065       -1.80804962932197
H           -0.33245063969081       -0.23599335580997        2.27087782958851
H           -1.99638831423955       -2.01950312441404        2.56166541124436
