75
 energy: -110.028592809586 gnorm: 0.000026540713 xtb: 6.7.1 (edcfbbe)
C           -6.09028361929641       -4.98596014826258        0.64131007872138
C           -4.89437496759059       -5.20849895132636       -0.27617309738876
C           -3.79955191239517       -4.17226317476975       -0.03828051449348
C           -2.59383302608406       -4.38894793263020       -0.96098822580764
C           -1.54440401240341       -3.34965889003685       -0.70037283765394
C           -1.58351589056080       -2.12503467669991       -1.35674722901088
C           -0.64825827382274       -1.14496499472976       -1.09001951182457
C            0.34281944898993       -1.37636465568069       -0.14252922666990
N            1.29219489550792       -0.37702595028593        0.13413759696272
C            1.04551425958913        0.93757423707611        0.44509302235441
C           -0.29082497806494        1.47805864579631        0.64029661639699
C           -1.24389501705884        0.71018569900825        1.31059448522934
C           -2.52669560286480        1.17043657424895        1.50714226905817
C           -2.91337133633757        2.42869234987156        1.04227576665689
C           -4.23486350250966        2.92793406579438        1.22564773834996
C           -4.58919767593185        4.15609098026427        0.78218192693671
C           -3.65115160887353        4.99674180967082        0.11471312685143
C           -3.99504087413317        6.26776687430803       -0.34854758272600
C           -3.06321844698938        7.06149037224550       -0.99180821688393
C           -1.77172866172812        6.60911879083006       -1.18876330864850
C           -1.38368279022131        5.34433484909230       -0.74323330923868
C           -0.06364821536096        4.84253793627120       -0.93060258781216
C            0.29453373751079        3.61310649537091       -0.49231197803878
C           -0.63300882766589        2.76639637229589        0.18229398333155
C           -1.95631958084795        3.23685781060863        0.38000214944037
C           -2.32971079106047        4.52343202450120       -0.08221484570764
N            2.16697377325891        1.59659603277317        0.59759290369654
C            3.18533519082806        0.71813691911724        0.38759967244231
C            4.56735525405536        1.16873046527043        0.44388129672986
C            5.58530459984816        0.52771706270518       -0.25959932890975
C            6.88416793607601        0.99366305039539       -0.18206881147767
C            7.18530532954475        2.10565483809236        0.58720399821158
C            6.17485535228328        2.76052603827448        1.27265872742327
C            4.87532733227881        2.29878670903595        1.20071282237771
C            2.66017978648527       -0.53188053769418        0.10195432275006
C            3.30308940161191       -1.80819149433186       -0.18048777498241
C            2.92146265272097       -2.57727803745456       -1.27831044299315
C            3.53277121595278       -3.79249126511700       -1.52416248494549
C            4.52988951303604       -4.25537508403118       -0.68230355723493
C            4.91912827082498       -3.49350634578133        0.40793109468776
C            4.31078337610016       -2.27938707875427        0.66052535854989
C            0.39255754980055       -2.59559061438764        0.52307852365318
C           -0.54550063978497       -3.56934089756362        0.23997509803276
H           -6.52169119425035       -4.00150058099083        0.47345348089157
H           -5.78875731042100       -5.05330505965943        1.68440306746993
H           -6.85843461017822       -5.73330434732429        0.45721276219922
H           -4.48821195168303       -6.20853357136641       -0.10720630542849
H           -5.22108370694626       -5.15609560342635       -1.31736696703940
H           -4.20200304389430       -3.17050572559494       -0.20609150239258
H           -3.46764859608883       -4.22436528454153        1.00133725363010
H           -2.92498472639962       -4.33230065610637       -1.99998341186620
H           -2.18402814251758       -5.38585189641852       -0.78665255869867
H           -2.35190478536093       -1.93879293415423       -2.09280442492995
H           -0.67951212331051       -0.19859418078801       -1.60976173579719
H           -0.96665111773237       -0.25746794875487        1.70299498209141
H           -3.24406343059432        0.55655471384267        2.03283653845271
H           -4.94998544601928        2.29538216701142        1.73291100042108
H           -5.59406978483207        4.52771293555980        0.92617679573135
H           -5.00284255542402        6.62797973610290       -0.19786914593423
H           -3.34704020426786        8.04329688166222       -1.34276448259522
H           -1.04795477353840        7.23466742766313       -1.69148320441060
H            0.65318055022166        5.47361001733042       -1.43677673299055
H            1.30268424583103        3.25411999321566       -0.62472471867785
H            5.35710625029681       -0.32787175473457       -0.87772797987226
H            7.66648536518400        0.48853873611827       -0.73051737810726
H            8.20269207380186        2.46439873637803        0.64556196761063
H            6.40329690284606        3.63466664600627        1.86546257323231
H            4.07640670663985        2.80073616156296        1.72442653978346
H            2.15366499528070       -2.21558235927097       -1.94729435039622
H            3.23012128036055       -4.37919109778927       -2.37923708788011
H            5.00478225420595       -5.20566599423646       -0.87635757278086
H            5.69779804485589       -3.84969293387424        1.06637223814483
H            4.60912669624730       -1.68393223506412        1.51110739517505
H            1.16093067013764       -2.77287128203193        1.26092417605990
H           -0.50087915716460       -4.51504697966241        0.76016108251670
