  104
       -142.75736028
 C          1.8990086090       -3.4298069649        2.3017593942
 C          2.7152811988       -3.2848853830        1.0531306038
 C          3.9721778986       -3.8728076889        0.9849838513
 C          4.7701572110       -3.7353494559       -0.1343873954
 C          4.3207435829       -2.9878028537       -1.2093576427
 C          3.0720157573       -2.4017466544       -1.1571263945
 C          2.2539702198       -2.5551779606       -0.0415648954
 C          0.9262245107       -1.8937136645       -0.0593801189
 C          0.8831164365       -0.4894572125       -0.0052482567
 C          2.1502907063        0.2710929354        0.0006329885
 C          2.4477376925        1.1563518759       -1.0293036432
 C          3.6153672405        1.8895847102       -1.0112921811
 C          4.5364252937        1.7683631356        0.0263241638
 C          5.7943606809        2.6221734087        0.0134238174
 C          5.3840819855        4.1006536852        0.0696904500
 C          6.5808437454        2.3471167710       -1.2756805728
 C          6.7162318743        2.3344528286        1.2014401554
 C          4.2405000747        0.8682708061        1.0415773011
 C          3.0696507790        0.1320497901        1.0305366614
 C         -0.3354073306        0.1697476949        0.0373207170
 C         -0.2996715542        1.6457499702        0.0041713097
 C         -0.8919831814        2.3275551190       -1.0522269068
 C         -0.7828766243        3.7010210456       -1.1611219286
 C         -0.0762289845        4.4452992546       -0.2244280003
 C          0.0959572281        5.9526578617       -0.3202948860
 C         -0.4747936493        6.6085687938        0.9448133178
 C         -0.6227744825        6.5540418501       -1.5309718255
 C          1.5932025610        6.2693567903       -0.4442322007
 C          0.5042328765        3.7558809975        0.8373633540
 C          0.3998860462        2.3852709577        0.9525310615
 C         -1.5465629499       -0.5602251734       -0.0321319166
 C         -1.4851677074       -1.9462479575       -0.3355128730
 C         -2.6874850944       -2.5792105333       -0.7973824243
 N         -2.6925969660       -3.8902355926       -1.2419778145
 C         -3.8674565382       -1.8810467084       -0.8062926505
 C         -3.9930185099       -0.5849735922       -0.2685874956
 C         -5.2585878467        0.0910290142       -0.1688820708
 C         -6.4487620200       -0.4555195531       -0.6813127177
 C         -7.6416571688        0.2169183157       -0.6167263040
 C         -7.7013055259        1.4845108226       -0.0368595329
 C         -6.5649426677        2.0430939972        0.4856907889
 C         -5.3335864347        1.3656127092        0.4485247395
 C         -4.1536225157        1.9165187732        1.0408379672
 N         -4.2077134378        3.1273760856        1.7170362972
 C         -2.9556312451        1.2737740635        0.8890368333
 C         -2.8275776435        0.0647805560        0.1741404158
 C         -0.2402086596       -2.6180410540       -0.2397197216
 C         -0.1160153912       -4.0933281135       -0.2743259893
 C          0.6520959322       -4.6973529052       -1.2664858526
 C          0.8510974936       -6.0649324960       -1.2796948011
 C          0.2841400768       -6.8478195708       -0.2897512659
 C         -0.4835756485       -6.2559011640        0.6970754464
 C         -0.6963674341       -4.8844435014        0.7252427838
 C         -1.5497625213       -4.2884959052        1.8034904200
 H          2.5424039054       -3.4140765369        3.1799352585
 H          1.1667212271       -2.6298615507        2.3844725996
 H          1.3659434984       -4.3801554177        2.2922264818
 H          4.3298826438       -4.4422567387        1.8316717594
 H          5.7442044940       -4.2015739933       -0.1649508848
 H          4.9415897950       -2.8614137622       -2.0841941008
 H          2.7149897719       -1.8151615380       -1.9923356967
 H          1.7530899180        1.2730016844       -1.8489093577
 H          3.8034633830        2.5733236829       -1.8256839964
 H          6.2665433113        4.7373258369        0.0712167873
 H          4.7672189375        4.3721925505       -0.7825469039
 H          4.8145303746        4.2966437475        0.9760524736
 H          6.0041009908        2.6121976283       -2.1571304333
 H          6.8364041462        1.2914810028       -1.3399205355
 H          7.5013348146        2.9274007282       -1.2851796838
 H          6.2212270304        2.5544185107        2.1444680224
 H          7.0386275182        1.2957451431        1.2018098610
 H          7.6024574288        2.9625435216        1.1337610648
 H          4.9184702560        0.7281124606        1.8678986083
 H          2.8624696015       -0.5465190515        1.8452063247
 H         -1.4385719809        1.7714979549       -1.8006865103
 H         -1.2568549579        4.1816642966       -2.0012911146
 H          0.0465141910        6.2717598706        1.8366603576
 H         -0.3778767791        7.6906573464        0.8833545688
 H         -1.5293228916        6.3612246717        1.0501908623
 H         -0.2301423992        6.1487579343       -2.4606521269
 H         -1.6926544225        6.3646609791       -1.4829889127
 H         -0.4713686538        7.6317609873       -1.5447280518
 H          2.0029094917        5.7935744336       -1.3328461818
 H          1.7465243638        7.3436028432       -0.5251833634
 H          2.1471790804        5.9085686933        0.4178622711
 H          1.0598101999        4.2915658862        1.5928795403
 H          0.8581407543        1.8815096954        1.7917278205
 H         -3.5173415801       -4.1509652744       -1.7598050547
 H         -1.8333011259       -4.2457843513       -1.6272395772
 H         -4.7335415384       -2.3826079021       -1.2103453409
 H         -6.4353780617       -1.4257735627       -1.1516218706
 H         -8.5371550375       -0.2292296801       -1.0248104123
 H         -8.6388290910        2.0203067554       -0.0044402690
 H         -6.6125870564        3.0334242733        0.9138846260
 H         -5.0533828192        3.3116035885        2.2330143305
 H         -3.3699090325        3.3432709558        2.2361800310
 H         -2.0908791528        1.6944778037        1.3756416514
 H          1.0881372847       -4.0842403080       -2.0418223232
 H          1.4510013234       -6.5150620529       -2.0567057448
 H          0.4396403201       -7.9166556026       -0.2853251798
 H         -0.9250742918       -6.8704900746        1.4692982071
 H         -1.5314974630       -4.9115793693        2.6952330020
 H         -1.2213081821       -3.2853765153        2.0629499842
 H         -2.5808601271       -4.2191057149        1.4579343591
