  66
  -109.681762752700       0.270297174346350      !
 C         -7.2803090726       -0.1548498595       -0.4796666353
 C         -6.2645087146       -1.1462756589        0.1199297504
 C         -6.9964858065       -2.3590757600        0.7260436155
 C         -5.4948390258       -0.4509440257        1.2231047181
 C         -6.1775113170        0.0554408560        2.3210094657
 C         -5.5227109582        0.6705379782        3.3716377653
 C         -4.1409864450        0.7730151516        3.3463461963
 C         -3.4373387492        0.2822920567        2.2694634211
 C         -4.0994292918       -0.3149581254        1.1882724703
 N         -3.3697863077       -0.7800211252        0.1094708217
 C         -1.9574521098       -0.6144146153        0.1058947237
 C         -1.1273886653       -1.7223088981        0.3251820938
 C          0.2309698702       -1.5539731014        0.3068167624
 C          0.8000828628       -0.2886463531        0.0870830311
 C         -0.0307498253        0.8383762823       -0.1158592108
 C         -1.4167267632        0.6350331946       -0.1121124107
 C          0.5680395411        2.1375467760       -0.3181734401
 C         -0.1888107750        3.3004348856       -0.4832044175
 C          0.4183432458        4.5321271782       -0.6714669218
 C         -0.3831299198        5.6828571576       -0.8276400568
 N         -1.0410197933        6.6147818269       -0.9540377907
 C          1.8211505319        4.6407312602       -0.7041579180
 C          2.5795212081        3.5155096317       -0.5404686334
 C          1.9807809609        2.2573989836       -0.3424162112
 C          2.8149120728        1.1140374875       -0.1599355700
 N          4.1375883773        1.2219943757       -0.1893527598
 C          4.9283263741        0.1694733373       -0.0185585515
 C          6.3199734524        0.2756420756       -0.0489436670
 C          7.1214060406       -0.8452616449        0.1318435132
 C          8.5260295508       -0.7200914741        0.0970369167
 N          9.6670600422       -0.6036267470        0.0645684454
 C          6.5343775141       -2.1100131995        0.3501371625
 C          7.3523159407       -3.2440033684        0.5309418786
 N          8.0036826499       -4.1771564179        0.6797662522
 C          5.1497168717       -2.2387705782        0.3867923628
 C          4.3264822863       -1.1281567065        0.2085018158
 N          2.9994594006       -1.2210252340        0.2424029862
 C          2.2245930920       -0.1623801966        0.0649168726
 C         -3.9690834956       -1.4120640780       -0.9644199063
 C         -3.1857292924       -1.8246062829       -2.0508274583
 C         -3.7516445060       -2.4765418863       -3.1234008364
 C         -5.1152179352       -2.7229654685       -3.1390031437
 C         -5.8961987422       -2.2901903817       -2.0835459146
 C         -5.3543396100       -1.6284364736       -0.9898519426
 H         -7.9634135054        0.2089141740        0.2824059759
 H         -6.7582543202        0.6984408878       -0.9086923704
 H         -7.8661702325       -0.6270736539       -1.2629666076
 H         -6.2748997337       -3.0544336198        1.1508759032
 H         -7.5724864481       -2.8825405640       -0.0315577843
 H         -7.6762948117       -2.0471029242        1.5136537205
 H         -7.2522887380       -0.0319525323        2.3636125217
 H         -6.0848350242        1.0569218692        4.2072248031
 H         -3.6109378344        1.2328499280        4.1659857654
 H         -2.3609534830        0.3537530855        2.2619376843
 H         -1.5691234853       -2.6913552184        0.5009903373
 H          0.8991862937       -2.3864272761        0.4649619226
 H         -2.0951385114        1.4568457634       -0.2781819163
 H         -1.2669292329        3.2662259112       -0.4620913483
 H          2.2779503873        5.6071229597       -0.8541210684
 H          3.6576078381        3.5627666498       -0.5553039508
 H          6.7648945460        1.2441312784       -0.2165791779
 H          4.6958537009       -3.2034922244        0.5526236547
 H         -2.1256145725       -1.6245565274       -2.0501745035
 H         -3.1292377549       -2.7894247674       -3.9473400512
 H         -5.5686216953       -3.2381089783       -3.9712134152
 H         -6.9590234193       -2.4740644797       -2.1190771144
  66
  -109.681530572400       0.211416475103299      !
 C         -7.0967419269       -2.3159095475        0.3138444953
 C         -6.2708663525       -1.0490015671        0.0203101568
 C         -7.2049079940        0.1332939277       -0.3032295196
 C         -5.3901161118       -1.3076883407       -1.1843681075
 C         -5.9675609535       -1.6615602472       -2.3962581834
 C         -5.2097322906       -1.8893554703       -3.5301154432
 C         -3.8319476745       -1.7526715861       -3.4692674862
 C         -3.2309120522       -1.3997037009       -2.2819071923
 C         -3.9944184212       -1.1829705352       -1.1271195483
 N         -3.3633043880       -0.8375038218        0.0519351971
 C         -1.9487722901       -0.6723431348        0.0534987667
 C         -1.1120554803       -1.7921484600        0.1452197972
 C          0.2454481942       -1.6121633716        0.1396194279
 C          0.8046384151       -0.3266374347        0.0502939451
 C         -0.0345135568        0.8093619618       -0.0332339380
 C         -1.4191127790        0.5968568263       -0.0342729234
 C          0.5535039223        2.1263411621       -0.1144605505
 C         -0.2129125371        3.2927783817       -0.1809874837
 C          0.3840113765        4.5413544277       -0.2560007410
 C         -0.4273629907        5.6940288831       -0.3202118693
 N         -1.0937217295        6.6273890415       -0.3721345662
 C          1.7859179288        4.6644971851       -0.2673931905
 C          2.5535051471        3.5354842217       -0.2020941601
 C          1.9650587856        2.2594941190       -0.1241723590
 C          2.8081347870        1.1103180088       -0.0528480703
 N          4.1297911290        1.2319384595       -0.0700881940
 C          4.9293342313        0.1741768226       -0.0054728275
 C          6.3199423810        0.2947665677       -0.0270393356
 C          7.1310158394       -0.8316644932        0.0410956312
 C          8.5344065942       -0.6914991235        0.0148868437
 N          9.6742490711       -0.5615460473       -0.0069171608
 C          6.5548612489       -2.1165992736        0.1352350982
 C          7.3826519101       -3.2557221232        0.2043812597
 N          8.0420154014       -4.1933733084        0.2604250503
 C          5.1713570836       -2.2602212235        0.1593889976
 C          4.3385225293       -1.1445442311        0.0906442036
 N          3.0121732892       -1.2518632620        0.1109895790
 C          2.2284573628       -0.1872058011        0.0402988215
 C         -4.0614599587       -0.6179029627        1.2234319342
 C         -3.3604826189       -0.3191693280        2.3994256519
 C         -4.0296762083       -0.0849036542        3.5795950034
 C         -5.4138797655       -0.1467409883        3.6106071892
 C         -6.1079736922       -0.4565328250        2.4556231987
 C         -5.4609186669       -0.7021244553        1.2520999952
 H         -7.7071523975       -2.5880755425       -0.5422442117
 H         -6.4328622505       -3.1478180306        0.5413121235
 H         -7.7559493507       -2.1611037758        1.1629812556
 H         -7.8656231680        0.3440731670        0.5328587468
 H         -7.8160977399       -0.0838246303       -1.1746270338
 H         -6.6174131198        1.0259888863       -0.5100350737
 H         -7.0400342495       -1.7609108332       -2.4643178374
 H         -5.6913159676       -2.1654662223       -4.4550011920
 H         -3.2261455210       -1.9187405566       -4.3465402852
 H         -2.1587213404       -1.2862413946       -2.2397717747
 H         -1.5467312123       -2.7774320201        0.2169615357
 H          0.9204173881       -2.4515596904        0.2059480810
 H         -2.1052419443        1.4261878062       -0.1015977096
 H         -1.2907476678        3.2475483805       -0.1729064152
 H          2.2347500584        5.6443328529       -0.3265107827
 H          3.6311680561        3.5929442200       -0.2075735200
 H          6.7563600016        1.2788483674       -0.0988222936
 H          4.7259253313       -3.2403993544        0.2302561240
 H         -2.2824582837       -0.2767990981        2.3794197526
 H         -3.4717972919        0.1444499163        4.4742119108
 H         -5.9488389209        0.0398857643        4.5285109717
 H         -7.1851638067       -0.5061371977        2.4989039392
  66
  -109.681431994600       0.190473958468391      !
 C         -7.3206251250       -0.0834103132       -0.0948952979
 C         -6.2616437195       -1.1597988467        0.2112457473
 C         -6.9451508658       -2.4968227938        0.5572003994
 C         -5.4451714017       -0.7120473429        1.4058072273
 C         -6.0739921216       -0.4718021129        2.6199184592
 C         -5.3724657780       -0.0669612716        3.7406348433
 C         -3.9994466003        0.1051092640        3.6621803025
 C         -3.3477368444       -0.1266527340        2.4717701785
 C         -4.0559736712       -0.5341267925        1.3334874545
 N         -3.3754341214       -0.7569814320        0.1531471988
 C         -1.9598759985       -0.5933963703        0.1329099777
 C         -1.1345465072       -1.6912127100        0.4077561202
 C          0.2244069558       -1.5264029506        0.3821475668
 C          0.7953581355       -0.2777325224        0.0863190962
 C         -0.0321789495        0.8365514392       -0.1881850251
 C         -1.4194211027        0.6403845837       -0.1573052139
 C          0.5707739929        2.1148861167       -0.4875015602
 C         -0.1824371620        3.2615455185       -0.7529205152
 C          0.4284772417        4.4725046632       -1.0381546253
 C         -0.3693085902        5.6070692264       -1.2976784353
 N         -1.0242389027        6.5259386035       -1.5078682694
 C          1.8316880861        4.5762521866       -1.0689952621
 C          2.5865516814        3.4666424634       -0.8101663578
 C          1.9839332284        2.2294398414       -0.5158248608
 C          2.8148471684        1.1013233871       -0.2445480481
 N          4.1379469977        1.2051875314       -0.2728018979
 C          4.9252154401        0.1674393292       -0.0158030090
 C          6.3172692315        0.2687240771       -0.0448365145
 C          7.1150609402       -0.8346800208        0.2335255803
 C          8.5201442003       -0.7149653330        0.1987331845
 N          9.6616032666       -0.6018388765        0.1675544840
 C          6.5238745625       -2.0763175531        0.5509632344
 C          7.3380311838       -3.1915609654        0.8356087748
 N          7.9861313155       -4.1086877465        1.0719544409
 C          5.1387631090       -2.2008576328        0.5830998309
 C          4.3192163797       -1.1079288306        0.3056530043
 N          2.9917116960       -1.1989229919        0.3264275370
 C          2.2205599773       -0.1551486037        0.0645758833
 C         -4.0163028967       -1.1560447385       -1.0027395850
 C         -3.2696334232       -1.3561048654       -2.1714328060
 C         -3.8807785424       -1.7547266829       -3.3389602864
 C         -5.2509498989       -1.9620591972       -3.3631937839
 C         -5.9909479197       -1.7639622392       -2.2120203132
 C         -5.4035477221       -1.3607896479       -1.0205427419
 H         -7.9705553538        0.0752935430        0.7607458923
 H         -6.8335500804        0.8596223072       -0.3359146276
 H         -7.9377868154       -0.3760230988       -0.9394024533
 H         -7.5829967982       -2.3909842090        1.4300623611
 H         -6.1933364955       -3.2543313695        0.7709713799
 H         -7.5564822109       -2.8445013971       -0.2706437544
 H         -7.1421824469       -0.6034458427        2.6997844389
 H         -5.8933440715        0.1116195989        4.6681991514
 H         -3.4368485047        0.4190160468        4.5276995422
 H         -2.2784007808        0.0057604356        2.4128022359
 H         -1.5795334913       -2.6481359891        0.6336665456
 H          0.8913614883       -2.3495973994        0.5871584340
 H         -2.0975488972        1.4535326552       -0.3623979957
 H         -1.2607347362        3.2301319440       -0.7396339553
 H          2.2914600775        5.5264773610       -1.2942607787
 H          3.6648096181        3.5103603191       -0.8233354788
 H          6.7654305550        1.2198419758       -0.2868416004
 H          4.6816461580       -3.1481732892        0.8235841947
 H         -2.2027344383       -1.1950871691       -2.1541419789
 H         -3.2889154991       -1.9035349712       -4.2287525151
 H         -5.7401131987       -2.2754256819       -4.2720994153
 H         -7.0566392656       -1.9303679545       -2.2489503982
  66
  -109.681368097400       0.178020693087499      !
 C         -7.1729741437       -2.2092837356       -0.1650167273
 C         -6.2711770400       -0.9640240324       -0.0727227891
 C         -7.1317190419        0.3121289116        0.0071274940
 C         -5.4143405881       -0.8871754999       -1.3194057480
 C         -6.0164575260       -0.8384730967       -2.5693494804
 C         -5.2776529706       -0.7609736948       -3.7356537933
 C         -3.8937294044       -0.7288259444       -3.6673631162
 C         -3.2682328153       -0.7684377737       -2.4415189456
 C         -4.0140054748       -0.8451761875       -1.2578384731
 N         -3.3584307472       -0.8800689962       -0.0431941915
 C         -1.9428783099       -0.7159312352       -0.0227358588
 C         -1.1002169941       -1.8335701216       -0.0729816066
 C          0.2564896073       -1.6455150890       -0.0601826965
 C          0.8082473886       -0.3551014175        0.0022412304
 C         -0.0378099103        0.7774788535        0.0575666781
 C         -1.4210697200        0.5574471404        0.0425954436
 C          0.5408888850        2.0992521002        0.1236561396
 C         -0.2335182386        3.2606100883        0.1858244510
 C          0.3548450128        4.5139809463        0.2469092965
 C         -0.4651143749        5.6606226079        0.3091988564
 N         -1.1394115721        6.5881187141        0.3592062215
 C          1.7558936430        4.6472528847        0.2475398311
 C          2.5311578132        3.5231694930        0.1881570368
 C          1.9513423921        2.2423448042        0.1263501996
 C          2.8017686647        1.0979800565        0.0665934976
 N          4.1224393011        1.2303445745        0.0664580540
 C          4.9297167254        0.1780512195        0.0109241069
 C          6.3193693870        0.3110018840        0.0087576579
 C          7.1391326059       -0.8095150750       -0.0507299326
 C          8.5414609322       -0.6568841404       -0.0523897428
 N          9.6803412681       -0.5176591961       -0.0535410704
 C          6.5726700486       -2.1008713501       -0.1097882463
 C          7.4097615281       -3.2336047574       -0.1712508560
 N          8.0776897432       -4.1655560923       -0.2200487271
 C          5.1902460517       -2.2567494916       -0.1085082832
 C          4.3486641497       -1.1470384791       -0.0496818132
 N          3.0229505024       -1.2655094743       -0.0485279942
 C          2.2313639336       -0.2056775897        0.0060510255
 C         -4.0335784032       -1.0062916380        1.1543469954
 C         -3.3073361415       -1.0833694781        2.3500478106
 C         -3.9527347972       -1.2087712659        3.5597214138
 C         -5.3373952196       -1.2547540731        3.5999721894
 C         -6.0570370933       -1.1770690003        2.4217389898
 C         -5.4346671674       -1.0571365913        1.1866424081
 H         -7.8033659982       -2.1676621888       -1.0483354099
 H         -6.5612774895       -3.1076564821       -0.2209614605
 H         -7.8181372875       -2.2868310742        0.7050899893
 H         -7.7738228020        0.2906703761        0.8831628758
 H         -7.7585935280        0.4109279638       -0.8746214916
 H         -6.4912612301        1.1898331321        0.0727231578
 H         -7.0930479801       -0.8579025025       -2.6413570076
 H         -5.7784278221       -0.7253618677       -4.6903981740
 H         -3.3024381696       -0.6712557329       -4.5680778252
 H         -2.1906748786       -0.7419748342       -2.3894939470
 H         -1.5289490476       -2.8227858121       -0.1224807946
 H          0.9364344774       -2.4826458594       -0.0994300471
 H         -2.1124512803        1.3842701631        0.0794658620
 H         -1.3110286667        3.2076006911        0.1885330611
 H          2.1980322105        5.6307698637        0.2950140862
 H          3.6084118161        3.5883340216        0.1871734236
 H          6.7479498297        1.3001008808        0.0538975200
 H          4.7526542636       -3.2419669063       -0.1536654007
 H         -2.2292847670       -1.0453229377        2.3196960968
 H         -3.3765128010       -1.2691645271        4.4699326595
 H         -5.8536926636       -1.3484114225        4.5424506729
 H         -7.1345812349       -1.2072908395        2.4727593080
  66
  -109.681034350600       0.125052125542316      !
 C         -7.0181349908       -2.2889935978       -0.7840591282
 C         -6.2594655249       -1.1515000404       -0.0736803178
 C         -7.2456354273       -0.2497434672        0.6934912986
 C         -5.5502353633       -0.3215235593       -1.1228618439
 C         -6.2911852117        0.3086457112       -2.1136862355
 C         -5.6940381856        1.0480913014       -3.1174280445
 C         -4.3127579137        1.1517525973       -3.1565866532
 C         -3.5520850148        0.5402835882       -2.1853706563
 C         -4.1549001567       -0.1818082373       -1.1465408874
 N         -3.3683176568       -0.7644834260       -0.1693810370
 C         -1.9588627266       -0.5859569287       -0.2114660333
 C         -1.1317803661       -1.6651940574       -0.5530387779
 C          0.2265619485       -1.4969008402       -0.5428512130
 C          0.7988976331       -0.2562718828       -0.2164425217
 C         -0.0297417842        0.8504065930        0.0836510789
 C         -1.4150074121        0.6435293628        0.0953689740
 C          0.5714304564        2.1313078636        0.3750258876
 C         -0.1834385647        3.2849219752        0.6018622956
 C          0.4257855694        4.4989724806        0.8781161726
 C         -0.3735116277        5.6413151187        1.0951888874
 N         -1.0292451218        6.5668774322        1.2703755588
 C          1.8283179721        4.5977965976        0.9400257209
 C          2.5847964118        3.4821779228        0.7132399274
 C          1.9841828468        2.2429529773        0.4234791160
 C          2.8157806217        1.1104210070        0.1735896582
 N          4.1376608035        1.2034622278        0.2494371677
 C          4.9255773297        0.1595521685        0.0217577964
 C          6.3157080803        0.2461214834        0.1152180702
 C          7.1139017432       -0.8660204738       -0.1247486339
 C          8.5165595276       -0.7631457228       -0.0157392961
 N          9.6559251781       -0.6647699408        0.0791212937
 C          6.5251721604       -2.1006682639       -0.4724994850
 C          7.3401822601       -3.2253355170       -0.7144367530
 N          7.9909957918       -4.1491014880       -0.9150946207
 C          5.1420647924       -2.2092454766       -0.5741461318
 C          4.3218945454       -1.1081305815       -0.3334972847
 N          2.9960897571       -1.1846968740       -0.4168207854
 C          2.2233661609       -0.1385747362       -0.1692241092
 C         -3.9102453612       -1.5228390365        0.8530101689
 C         -3.0729318690       -2.0491794564        1.8462032610
 C         -3.5811500986       -2.8306699827        2.8594287451
 C         -4.9402790368       -3.0957028655        2.9101685870
 C         -5.7746842770       -2.5490230304        1.9531929442
 C         -5.2913771692       -1.7553408425        0.9214562132
 H         -7.7349080112       -1.8906040915       -1.4963023210
 H         -6.3167294011       -2.9243441364       -1.3216952247
 H         -7.5568589749       -2.9021577131       -0.0674222197
 H         -7.7887254147       -0.8192485651        1.4421839411
 H         -7.9684749158        0.1979094179        0.0176214677
 H         -6.7044706311        0.5496045240        1.1964454484
 H         -7.3667800024        0.2210322705       -2.1080410174
 H         -6.3005877340        1.5288544004       -3.8687185572
 H         -3.8274441186        1.7064927682       -3.9445737590
 H         -2.4766898179        0.6134660123       -2.2296850361
 H         -1.5759292525       -2.6155967273       -0.8072505198
 H          0.8922349285       -2.3113636303       -0.7837304907
 H         -2.0893529949        1.4449075874        0.3530259574
 H         -1.2611488770        3.2578699183        0.5573328796
 H          2.2867586277        5.5499304634        1.1599621544
 H          3.6627419906        3.5237078277        0.7454980332
 H          6.7620548052        1.1916613198        0.3812246087
 H          4.6867260280       -3.1516608807       -0.8362980482
 H         -2.0158507205       -1.8358489237        1.8217356131
 H         -2.9169141582       -3.2298539626        3.6101723928
 H         -5.3487082649       -3.7122921329        3.6953521986
 H         -6.8334396558       -2.7475811219        2.0180292389
  66
  -109.678624613600       9.764558901952465E-003 !
 C         -7.5914147515       -1.4521977354        0.4867544244
 C         -6.0784551741       -1.6384593835        0.3393453110
 C         -5.7774146745       -3.1507486753        0.2148782091
 C         -5.3213436370       -1.1355870700        1.5515404350
 C         -5.8682388862       -1.1338901949        2.8258943928
 C         -5.1261520772       -0.7710369546        3.9368751242
 C         -3.8011733515       -0.3975275924        3.7876438177
 C         -3.2332901262       -0.3815096140        2.5324687051
 C         -3.9787049340       -0.7522470227        1.4080714591
 N         -3.3946374330       -0.6980659377        0.1527360626
 C         -1.9857207643       -0.5404723508        0.0813268384
 C         -1.1727810777       -1.6333602688        0.4122447571
 C          0.1880308313       -1.4918709026        0.3811393964
 C          0.7789295660       -0.2731175440        0.0095403564
 C         -0.0325009253        0.8315689852       -0.3403001880
 C         -1.4222014544        0.6670370919       -0.2762584162
 C          0.5892763926        2.0747954768       -0.7349097891
 C         -0.1461146467        3.1906478735       -1.1429367356
 C          0.4827476078        4.3682879547       -1.5159025111
 C         -0.2969396358        5.4697993795       -1.9278551678
 N         -0.9370763262        6.3628671150       -2.2598123168
 C          1.8862801366        4.4688076293       -1.4908663818
 C          2.6240628396        3.3862226580       -1.1012721825
 C          2.0034179870        2.1806181740       -0.7245331004
 C          2.8170112439        1.0725601002       -0.3418189352
 N          4.1403625705        1.1722062885       -0.3161525308
 C          4.9116937067        0.1521698336        0.0392700619
 C          6.3035864453        0.2523010252        0.0766775680
 C          7.0835264655       -0.8328955760        0.4584229756
 C          8.4885001595       -0.7118519908        0.4961381556
 N          9.6298591198       -0.5971552220        0.5257016269
 C          6.4743858487       -2.0561119411        0.8110280553
 C          7.2696951365       -3.1526739610        1.2018965421
 N          7.9016982737       -4.0563516863        1.5202707736
 C          5.0891869479       -2.1800416470        0.7767904350
 C          4.2872428913       -1.1043107377        0.3994574378
 N          2.9604452724       -1.1934827392        0.3593146253
 C          2.2046664203       -0.1633289236        0.0134261915
 C         -4.1735253259       -0.6537319709       -0.9908117131
 C         -3.6141073401       -0.2827905410       -2.2181817205
 C         -4.4022391960       -0.1582663879       -3.3417480234
 C         -5.7619490982       -0.4050376298       -3.2589950397
 C         -6.3088337947       -0.8345970523       -2.0616084868
 C         -5.5384257097       -0.9869554629       -0.9192525721
 H         -7.9587083336       -1.9779119695        1.3628601846
 H         -7.8430161536       -0.3977132077        0.5752052011
 H         -8.1153737663       -1.8717680919       -0.3667107011
 H         -6.1205834060       -3.6743131942        1.1044186325
 H         -4.7086619751       -3.3227830708        0.1035674105
 H         -6.2836996977       -3.5622736294       -0.6554165552
 H         -6.8937483461       -1.4289655653        2.9741556342
 H         -5.5821554524       -0.7849768166        4.9144614037
 H         -3.2121245447       -0.1116688232        4.6452047758
 H         -2.2070120469       -0.0699306109        2.4131342363
 H         -1.6304093857       -2.5688329922        0.6960405166
 H          0.8413292016       -2.3109586605        0.6393665791
 H         -2.0832215629        1.4915025429       -0.4923419557
 H         -1.2237872356        3.1582481492       -1.1842306294
 H          2.3599488708        5.3946093156       -1.7801171170
 H          3.7021337476        3.4271735546       -1.0735317451
 H          6.7658398125        1.1890496282       -0.1933107462
 H          4.6180776116       -3.1124725304        1.0466984136
 H         -2.5545159713       -0.0953087221       -2.2908639389
 H         -3.9540621791        0.1338658590       -4.2788881435
 H         -6.3914290974       -0.2931846055       -4.1278135967
 H         -7.3609516685       -1.0647963319       -2.0378017854
  66
  -109.678375461600       7.501537734832749E-003 !
 C         -7.6500049660       -0.9176500962        0.0824285063
 C         -6.1822860720       -0.5066311207       -0.0521507822
 C         -6.1289139592        0.9658034441       -0.5246980146
 C         -5.4413472896       -1.3220558762       -1.0935313989
 C         -6.0775553823       -1.9307582301       -2.1633367841
 C         -5.3634063611       -2.5256463137       -3.1904626930
 C         -3.9793328548       -2.4899526407       -3.1770581522
 C         -3.3187335821       -1.9093616126       -2.1156966754
 C         -4.0359076890       -1.3544430679       -1.0514564280
 N         -3.3716106200       -0.8421120368        0.0487197588
 C         -1.9576535349       -0.6953065356        0.0266567328
 C         -1.1136018328       -1.8104550546        0.1280950332
 C          0.2425736768       -1.6244700140        0.1142914731
 C          0.7959714485       -0.3374271591        0.0083539953
 C         -0.0484495972        0.7931256767       -0.0863147333
 C         -1.4321934841        0.5741679547       -0.0750532347
 C          0.5335075462        2.1112002412       -0.1889733208
 C         -0.2379148093        3.2723925060       -0.2829354028
 C          0.3531170400        4.5223209075       -0.3795459926
 C         -0.4644581818        5.6685878089       -0.4725028282
 N         -1.1354513979        6.5968089977       -0.5476806119
 C          1.7544109702        4.6523054537       -0.3852163546
 C          2.5270457500        3.5286157597       -0.2933555998
 C          1.9445199763        2.2512722588       -0.1943662666
 C          2.7928782545        1.1080500724       -0.0978372046
 N          4.1140084488        1.2359281850       -0.0985003508
 C          4.9183111753        0.1836015577       -0.0116648789
 C          6.3084304368        0.3116614164       -0.0077745090
 C          7.1242542782       -0.8097879414        0.0820896870
 C          8.5271731741       -0.6618417570        0.0865648476
 N          9.6672439901       -0.5289055687        0.0843386124
 C          6.5536528013       -2.0976171502        0.1702785247
 C          7.3863503366       -3.2319784783        0.2573389381
 N          8.0497936969       -4.1657310936        0.3286834967
 C          5.1707172129       -2.2486580603        0.1710929908
 C          4.3331920730       -1.1378801081        0.0841086287
 N          3.0073453739       -1.2513178259        0.0899647197
 C          2.2188906706       -0.1916145045        0.0031705183
 C         -4.0378954626       -0.6458410251        1.2462740287
 C         -3.3135365661       -0.5622289021        2.4393789844
 C         -3.9666832768       -0.4257251329        3.6451651275
 C         -5.3505415799       -0.3832391673        3.6767907363
 C         -6.0704269838       -0.4507471113        2.4954664382
 C         -5.4402066347       -0.5710164826        1.2670323171
 H         -8.1655121190       -0.8081811657       -0.8672316073
 H         -7.7342637978       -1.9493557824        0.4164131428
 H         -8.1625168330       -0.2724269762        0.7900454347
 H         -6.6213570097        1.6091085010        0.2011443701
 H         -6.6293299214        1.0681880395       -1.4850061705
 H         -5.0992080993        1.2984269378       -0.6373635010
 H         -7.1535268770       -1.9409566404       -2.2179009518
 H         -5.8890680261       -2.9937175443       -4.0079916721
 H         -3.4127748688       -2.9187562648       -3.9890761639
 H         -2.2401711267       -1.8858835391       -2.1055455042
 H         -1.5422099005       -2.7966048673        0.2251583139
 H          0.9217239114       -2.4596424645        0.1919277313
 H         -2.1206755518        1.4015229221       -0.1419529140
 H         -1.3155301331        3.2220589380       -0.2817302097
 H          2.1988218442        5.6329959152       -0.4612972392
 H          3.6044510991        3.5914620231       -0.2939568481
 H          6.7407424797        1.2978116216       -0.0763533331
 H          4.7293406957       -3.2309125513        0.2389208977
 H         -2.2359111549       -0.6172744143        2.4141498541
 H         -3.3959572603       -0.3625473598        4.5586582532
 H         -5.8710757039       -0.2881823693        4.6169124066
 H         -7.1452790168       -0.3989397687        2.5489685738
  66
  -109.678371920000       7.473476815360335E-003 !
 C         -7.5907510302       -1.5247153757        0.4132446121
 C         -6.0681617636       -1.6502459719        0.3267819201
 C         -5.7024971482       -3.1535566949        0.3134801397
 C         -5.3677045876       -1.0383120229        1.5221702376
 C         -5.9691065433       -0.9058265286        2.7637212517
 C         -5.2632570021       -0.4590296734        3.8683629264
 C         -3.9212849030       -0.1402010284        3.7464352250
 C         -3.3015387219       -0.2455327302        2.5200727237
 C         -4.0137976273       -0.6859050441        1.4001664448
 N         -3.3912725962       -0.7318544999        0.1635913041
 C         -1.9806694847       -0.5690768489        0.1135130763
 C         -1.1645998682       -1.6585326009        0.4438085601
 C          0.1962639863       -1.5103614361        0.4139226042
 C          0.7820362278       -0.2871740229        0.0496127840
 C         -0.0342351288        0.8171021906       -0.2908471295
 C         -1.4227994718        0.6433985208       -0.2354629808
 C          0.5807659773        2.0676773047       -0.6720922701
 C         -0.1607685474        3.1844464651       -1.0660748942
 C          0.4618212086        4.3693994067       -1.4258260736
 C         -0.3238985764        5.4716249663       -1.8244685762
 N         -0.9664688145        6.3636624018       -2.1546116441
 C          1.8648052855        4.4773196965       -1.3985637216
 C          2.6084348632        3.3939901549       -1.0223468229
 C          1.9941708884        2.1803188607       -0.6615113836
 C          2.8133662771        1.0698687808       -0.2981589209
 N          4.1364785392        1.1739031956       -0.2812333773
 C          4.9144479872        0.1491370783        0.0446795062
 C          6.3063268596        0.2529999940        0.0680605256
 C          7.0940515040       -0.8394834962        0.4108253861
 C          8.4989683157       -0.7147466534        0.4361974499
 N          9.6406495153       -0.6006770285        0.4438569339
 C          6.4926042756       -2.0737993599        0.7373820076
 C          7.2979924951       -3.1793154046        1.0793410095
 N          7.9414569090       -4.0854558355        1.3655242257
 C          5.1072876392       -2.1999441683        0.7214185770
 C          4.2974437932       -1.1166883878        0.3842355012
 N          2.9702158628       -1.2071778913        0.3625391834
 C          2.2078463917       -0.1731659064        0.0437678492
 C         -4.1390145303       -0.7318100522       -1.0017078598
 C         -3.5483716570       -0.4074620959       -2.2269244276
 C         -4.3099842636       -0.3253617402       -3.3727323415
 C         -5.6722229941       -0.5649751354       -3.3131600343
 C         -6.2508771506       -0.9448011248       -2.1136252649
 C         -5.5065579618       -1.0574251240       -0.9503138967
 H         -7.9626128281       -2.0075102768        1.3120920685
 H         -7.8934663007       -0.4801729701        0.4202487469
 H         -8.0631358937       -2.0262255572       -0.4263171030
 H         -6.0612078745       -3.6324215250        1.2218688184
 H         -4.6245324950       -3.2886583281        0.2546436316
 H         -6.1570951527       -3.6405750980       -0.5463986267
 H         -7.0084284704       -1.1597217174        2.8909405968
 H         -5.7603950282       -0.3685803491        4.8215398289
 H         -3.3593123690        0.2001917981        4.6022991332
 H         -2.2616665675        0.0249447355        2.4188447422
 H         -1.6176680092       -2.5979400291        0.7215506726
 H          0.8529723534       -2.3284862713        0.6665855522
 H         -2.0891395840        1.4626286404       -0.4552392115
 H         -1.2383934293        3.1476881309       -1.1049496644
 H          2.3335345940        5.4087135450       -1.6775216499
 H          3.6863822373        3.4396937035       -0.9960300071
 H          6.7623496492        1.1978386973       -0.1837816469
 H          4.6422562165       -3.1405333444        0.9730086673
 H         -2.4875266456       -0.2193719790       -2.2791345310
 H         -3.8395054217       -0.0680923341       -4.3090147286
 H         -6.2802659239       -0.4822364335       -4.2002930361
 H         -7.3053918251       -1.1649550675       -2.1036924504
