68
 energy: -109.631950063585 gnorm: 0.000066641742 xtb: 6.7.1 (edcfbbe)
N            0.28662185723836        6.58457691328141       -0.31661858081307
C           -0.14312423964534        5.52362090455404       -0.25945713390637
C           -0.67094520717488        4.21371468478807       -0.18945168653814
C           -0.30350318005661        3.37070122410971        0.86039210176739
C           -0.81412237360210        2.09104210781462        0.92389331693308
C           -1.69331438312671        1.64199658436365       -0.05945415644382
N           -2.15732491636552        0.31948176563427       -0.01799329121036
C           -1.33793415127430       -0.79406708596822       -0.04337495248131
C            0.11350186049178       -0.72824190290716       -0.09875614060769
C            0.78801477892033        0.19117191059075       -0.90098782972104
C            2.16617199628796        0.23930651108700       -0.90134557464722
C            2.90148041286752       -0.62620734838023       -0.09387482612628
N            4.29539804964160       -0.53808694286725       -0.06191849991946
C            5.18441478473575       -1.59052168600548       -0.17910466438866
C            4.93773517162233       -2.93478099518986       -0.41727080785268
C            6.02514355727757       -3.78140905884163       -0.52040584072856
C            7.32992348071894       -3.30872211110446       -0.40073927745682
C            7.58217787683394       -1.96767425661444       -0.19151465600186
C            6.50559285353228       -1.09737985625643       -0.08427972339376
C            6.40048992150609        0.32274351212085        0.10526158256975
C            7.33599215004609        1.33385881124837        0.27996875455676
C            6.88683532681902        2.62618431316728        0.46467555176774
C            5.52419027811268        2.91316529836178        0.49371186169322
C            4.57480437245014        1.92355491059054        0.32291973337380
C            5.02040661769623        0.62708722984512        0.10919294821931
C            2.23169669218578       -1.57318400343405        0.67942883989449
C            0.85423058994840       -1.62817735845000        0.66712196836234
N           -2.02044727883850       -1.90673384924057       -0.02167943599166
C           -3.33135465773601       -1.54496591969915        0.01303290004260
C           -4.47068935434105       -2.39666722803798        0.00296437127535
C           -4.33495559040830       -3.78744023491240       -0.05916276448207
C           -5.44724293314976       -4.58982970434956       -0.10679055753942
C           -6.71283798083924       -4.00651110795512       -0.09720941950925
C           -6.85760789361455       -2.64059017058315       -0.02961650417364
C           -5.74554072529316       -1.78664545638874        0.03113752137302
C           -5.86422328584152       -0.34330567579623        0.14382181198301
C           -7.11213996576608        0.28408078138979        0.26709691929207
C           -7.23310136530626        1.64403263477060        0.42688370401853
C           -6.09630532174542        2.44329596355442        0.49167058239504
C           -4.85539006877700        1.86980578845755        0.36512778048383
C           -4.71113800812470        0.48908494395680        0.16709253122920
C           -3.45069153202563       -0.15721682237947        0.02840496448972
C           -2.06162229582454        2.48449633746213       -1.10833323438810
C           -1.55641024487895        3.76589659371404       -1.17218024269665
H            0.37756789960158        3.72613623348095        1.61898259002879
H           -0.53630716735452        1.42949990490327        1.73050904015191
H            0.23780821394363        0.85288514792017       -1.55329038168384
H            2.68354922610322        0.93785938683647       -1.54141556567251
H            3.93197227470277       -3.30934217097428       -0.53285650302930
H            5.85890497631158       -4.83295660233615       -0.70199517471278
H            8.15256092188459       -4.00315897485433       -0.48407218980548
H            8.59344139741820       -1.59736624365146       -0.11701580458567
H            8.39156556752767        1.10800235941511        0.27508592237193
H            7.59751736010002        3.42788968445315        0.59866958035889
H            5.20145617742755        3.93098972125633        0.65585028600088
H            3.52092555104276        2.15553408897305        0.36600453058448
H            2.79767706484803       -2.24590399853537        1.30562696170375
H            0.32727240814949       -2.35533474099486        1.26483144017003
H           -3.33688241909437       -4.19672593292233       -0.07624033611426
H           -5.34815815394313       -5.66396567009058       -0.15717622213127
H           -7.59126063793173       -4.63384824966570       -0.14321637626949
H           -7.85682276721793       -2.23506839841931       -0.02833092249175
H           -8.01299170959612       -0.30743896166587        0.24923534357054
H           -8.21181807708133        2.09099473752245        0.51887509279450
H           -6.18766624106367        3.50809741751362        0.64644793170702
H           -3.97697531499962        2.49134357125138        0.44113416301500
H           -2.74136251013294        2.12359569116104       -1.86616040589062
H           -1.83483271576637        4.42374004994101       -1.98176094472980
