68
 energy: -109.550717463456 gnorm: 0.000069901648 xtb: 6.7.1 (edcfbbe)
N           -0.02339114925978        6.82146963121511       -0.65166250912885
C           -0.39537635621954        5.73886269937979       -0.54216087005197
C           -0.84630657826855        4.41504561211704       -0.40787034441780
C           -0.40620234214586        3.62523288818840        0.66449508985853
C           -0.83698125774750        2.32758827625207        0.78935724492716
C           -1.73086539313235        1.78518714546899       -0.14775844558637
N           -2.13050011430940        0.45894038794096       -0.02857378973464
C           -1.24550549761687       -0.63085275899699        0.16058417988832
C            0.15248372571029       -0.61712939502474        0.06325105200007
C            0.92229710398030        0.40172247862397       -0.56787384369804
C            2.28626888862500        0.34150469503207       -0.58275511928617
C            2.97319378136896       -0.73138708545439        0.01284798194744
N            4.36029693227853       -0.75359133261280        0.02873918505377
C            5.16555549695376       -1.83886111621054       -0.26792322164330
C            4.81547483822966       -3.10661356264866       -0.71266231060934
C            5.83422018424245       -4.00582176703239       -0.96840235820893
C            7.17184532124544       -3.65615372341023       -0.80278130051208
C            7.52858524658132       -2.38324932143556       -0.39718862628834
C            6.52367387832873       -1.46512153028744       -0.13366072632558
C            6.53059813954161       -0.08301496412424        0.26395346843582
C            7.54300993845344        0.81700796773913        0.56002343742678
C            7.19648357837326        2.09832901708013        0.94761241295683
C            5.86088948714568        2.47520201571657        1.06250190048633
C            4.83512323196410        1.59400934344620        0.77461740121150
C            5.17659439533388        0.31711964984290        0.34980008421540
C            2.22423713225738       -1.78540706851225        0.57634747914201
C            0.86298715696686       -1.73549784137980        0.59171345045848
N           -1.93587443005675       -1.77406852952418        0.35571221680345
C           -3.21420195569630       -1.47418723469558        0.22077271890626
C           -4.32313434728980       -2.37051811107871        0.24093642647434
C           -4.12363973568832       -3.74797219654456        0.35328092384125
C           -5.19582666477454       -4.61249388980419        0.30951766766424
C           -6.47429685509061       -4.09800010756305        0.13969493039981
C           -6.68165190544217       -2.73551748982675        0.03802826955584
C           -5.61985545486049       -1.82682186666544        0.09994459869529
C           -5.80791145026268       -0.38295291624366        0.05501458402280
C           -7.08119829186716        0.18300449365598        0.07631911711561
C           -7.28169326809994        1.54989610854203        0.09230181486666
C           -6.18750357644463        2.41195578082490        0.11761529939238
C           -4.91657701539941        1.90180259800187        0.08830881530567
C           -4.68276446932999        0.50802482957865        0.03028648690962
C           -3.40104498737631       -0.06688409084269        0.00934591890569
C           -2.17319933084692        2.57632095682389       -1.21866408647876
C           -1.73577482938117        3.87158054605585       -1.34870506172831
H            0.26930620148994        4.04962480407536        1.39244903826080
H           -0.50513965414649        1.71583655107729        1.61490172883220
H            0.42849550459415        1.19392518103593       -1.10560992099642
H            2.85259417495796        1.09945045103229       -1.10351845268025
H            3.78475098909165       -3.38161586675269       -0.87330786779275
H            5.58612254559426       -4.99937762326283       -1.31040210264356
H            7.93872591767059       -4.38741332349401       -1.00921025223343
H            8.56600309943774       -2.10421015177250       -0.29323466879266
H            8.57798850443347        0.51824107332223        0.49336882805599
H            7.96932729555661        2.81600539516438        1.17781591411956
H            5.61986214661060        3.47590799040395        1.38797131194927
H            3.80439244049373        1.89067511888290        0.89197434181019
H            2.74481071863262       -2.60850170498598        1.04189840280015
H            0.28136002317833       -2.52248445959700        1.04331952579540
H           -3.11150042166110       -4.10445983678914        0.46362333160616
H           -5.04519900374391       -5.67792208710829        0.39612605443130
H           -7.32046402414542       -4.76762377745440        0.08698511324719
H           -7.69260992708674       -2.38633213737897       -0.09873597085461
H           -7.95097963246055       -0.45371932629450        0.09782021953399
H           -8.28523648162631        1.94705815607561        0.10620599039097
H           -6.33974644015614        3.47975891815570        0.16746905753067
H           -4.07725120650218        2.57500694707150        0.14056710509494
H           -2.84440176089475        2.14839336995634       -1.94908404363194
H           -2.06282194206797        4.47788415405922       -2.18033726745412
