  57
  -102.227493475600       0.156010685264794      !
 O          5.3269786455        2.3616999196       -0.2283468831
 C          5.8589048897        1.2292688584       -0.1136657430
 C          7.2826142176        1.1022741200        0.1539587884
 C          7.9880647873        2.2880592551        0.4600024201
 C          9.3140073926        2.2475375709        0.8101602583
 C         10.0017612793        1.0367595979        0.8711525206
 C          9.3388411328       -0.1340536802        0.5448454298
 C          8.0073832536       -0.0885163089        0.1849659079
 S          7.2594351592       -1.6046994508       -0.3879396446
 O          7.4948755460       -1.7228882280       -1.8086212998
 O          7.6890248560       -2.7150627189        0.4247194345
 C          5.5249245663       -1.2877502575       -0.1340921534
 C          4.6745716377       -2.3724856586       -0.0624191862
 C          3.3076923530       -2.1818887757       -0.0082180739
 C          2.7850902002       -0.8754979621       -0.0451895488
 C          1.3371523736       -0.6484374194       -0.0298651880
 C          0.4733984269       -1.4921794742       -0.7326614415
 C         -0.8875650733       -1.2806115326       -0.7264629152
 C         -1.4323368270       -0.2156341849       -0.0052095430
 N         -2.8164286368       -0.0028968487        0.0097366443
 C         -3.6844058975       -1.0960079532        0.0394574398
 C         -3.3526910799       -2.2405078497        0.7704747835
 C         -4.2033909100       -3.3257888345        0.7964864600
 C         -5.3968864282       -3.2749215246        0.0913460462
 Br        -6.5726609640       -4.7707793547        0.1261558019
 C         -5.7448634332       -2.1483686162       -0.6394586221
 C         -4.8912093548       -1.0652741897       -0.6653371210
 C         -3.3208994015        1.2981713946       -0.0106024753
 C         -2.6703412100        2.2976972036       -0.7400423580
 C         -3.1640700474        3.5854111840       -0.7574899644
 C         -4.3162149451        3.8850133888       -0.0455139128
 Br        -5.0011065692        5.6600880016       -0.0702415340
 C         -4.9764221306        2.9076746569        0.6848392532
 C         -4.4792145971        1.6213537432        0.7024876764
 C         -0.5757077964        0.6322254512        0.7013597136
 C          0.7846574142        0.4188316844        0.6830417749
 C          3.6487741263        0.1997825252       -0.1045694668
 C          5.0480368144        0.0275474482       -0.1356451554
 H          7.4345110811        3.2141151861        0.4160562428
 H          9.8278460279        3.1679621847        1.0459424548
 H         11.0417205306        1.0076329099        1.1554207893
 H          9.8344079867       -1.0921758014        0.5561665039
 H          5.1076226151       -3.3605708067       -0.0525979095
 H          2.6477087518       -3.0305367253        0.0764956053
 H          0.8800698860       -2.3035435782       -1.3168244008
 H         -1.5395631926       -1.9274770955       -1.2955758883
 H         -2.4287181798       -2.2680142573        1.3288705499
 H         -3.9464338558       -4.2043779487        1.3676616929
 H         -6.6716481048       -2.1236512131       -1.1913124981
 H         -5.1489898401       -0.1929482056       -1.2478064760
 H         -1.7821261076        2.0553219187       -1.3042449645
 H         -2.6621563556        4.3517746663       -1.3275370411
 H         -5.8662884867        3.1545946772        1.2427086774
 H         -4.9787608048        0.8614485954        1.2851636915
 H         -0.9894135982        1.4462319927        1.2787542555
 H          1.4311854566        1.0684090604        1.2526195629
 H          3.2833598104        1.2148825333       -0.1495186672
  57
  -102.227332632400       0.131593951379225      !
 O          5.3103196942        2.3530861674        0.3729700477
 C          5.8433365285        1.2257731035        0.2289393717
 C          7.2652679634        1.1058199311       -0.0559885250
 C          7.9607265124        2.2923997257       -0.3783078697
 C          9.2793306046        2.2534217781       -0.7565814772
 C          9.9685156128        1.0440412355       -0.8273191789
 C          9.3159067834       -0.1275430026       -0.4836483613
 C          7.9923105351       -0.0831071736       -0.0958519297
 S          7.2539730117       -1.5939173864        0.5034306188
 O          7.7046070323       -2.7188633889       -0.2776232256
 O          7.4716280002       -1.6753355466        1.9292679506
 C          5.5255909230       -1.2929471344        0.2042963661
 C          4.6860575655       -2.3796218337        0.0625829211
 C          3.3187874586       -2.1965942323        0.0023049577
 C          2.7842536002       -0.8977840159        0.1085556128
 C          1.3383026189       -0.6715796893        0.0649961730
 C          0.5154724462       -1.4205381134       -0.7806291505
 C         -0.8446374792       -1.2079771973       -0.8199398457
 C         -1.4297763914       -0.2336155191       -0.0073122994
 N         -2.8118547391       -0.0155929254       -0.0423109500
 C         -3.6831960606       -1.0978233044       -0.1793010796
 C         -3.3896038548       -2.3212129845        0.4299914576
 C         -4.2454333535       -3.3942631947        0.2943081587
 C         -5.4060495002       -3.2518958801       -0.4519065635
 Br        -6.5904264662       -4.7299454331       -0.6378985925
 C         -5.7154035097       -2.0465426618       -1.0646859314
 C         -4.8562235241       -0.9758706086       -0.9295499714
 C         -3.3108554532        1.2841817938        0.0620593850
 C         -2.6221142270        2.3527479787       -0.5192937839
 C         -3.1083443610        3.6391688482       -0.4144484445
 C         -4.2913456672        3.8680110420        0.2727843304
 Br        -4.9660273664        5.6414145348        0.4168342058
 C         -4.9894749126        2.8214203651        0.8572510526
 C         -4.4996918873        1.5361821785        0.7527022380
 C         -0.6139651143        0.5210166811        0.8399699757
 C          0.7452407451        0.3059337002        0.8697346146
 C          3.6388582983        0.1808255914        0.2283313445
 C          5.0385678487        0.0195139748        0.2362928644
 H          7.4057683506        3.2174129227       -0.3284767061
 H          9.7855049680        3.1739370401       -1.0079384474
 H         11.0028829273        1.0167613346       -1.1314717058
 H          9.8140394614       -1.0842908333       -0.4994168829
 H          5.1273302352       -3.3633661362        0.0262145946
 H          2.6640063056       -3.0499486078       -0.0735793734
 H          0.9546004777       -2.1571357153       -1.4360567122
 H         -1.4644469714       -1.7810984880       -1.4943967526
 H         -2.4924203154       -2.4205345720        1.0229692970
 H         -4.0194272608       -4.3339766144        0.7740969288
 H         -6.6160383007       -1.9503888682       -1.6509685165
 H         -5.0833277618       -0.0407635346       -1.4201531043
 H         -1.7091434362        2.1663306344       -1.0649716507
 H         -2.5764554893        4.4597371791       -0.8703577357
 H         -5.9036714473        3.0128487727        1.3972701688
 H         -5.0305034517        0.7203620146        1.2209306813
 H         -1.0605334533        1.2616272605        1.4873897999
 H          1.3588554797        0.8780362781        1.5482564312
 H          3.2662284550        1.1935336733        0.2678795624
  57
  -102.227278779800       0.124304538726988      !
 O          5.3476277170        1.1090275557       -2.1193448101
 C          5.8721447808        0.5227574491       -1.1399820418
 C          7.3008568794        0.6302675111       -0.8911568574
 C          8.0246613277        1.5479206715       -1.6860894550
 C          9.3602136718        1.7707883170       -1.4649584746
 C         10.0401833766        1.0975354596       -0.4515345755
 C          9.3580683636        0.1727613467        0.3205941469
 C          8.0165806889       -0.0548248588        0.0898343593
 S          7.2434672977       -1.3757668689        1.0086860074
 O          7.4636457789       -2.6164706403        0.3012981972
 O          7.6689126680       -1.3443726571        2.3858678453
 C          5.5152634690       -0.9607119354        0.8890851243
 C          4.6555481895       -1.5273968309        1.8086054332
 C          3.2914903475       -1.3487394862        1.6875360956
 C          2.7805001384       -0.6010043492        0.6098889906
 C          1.3337121724       -0.4294212820        0.4425062824
 C          0.4548149927       -1.4803732050        0.7164654258
 C         -0.9057428797       -1.3255237070        0.5685260184
 C         -1.4335673613       -0.1034619747        0.1460117700
 N         -2.8185978022        0.0617083052        0.0103476302
 C         -3.5919228245       -0.9837096274       -0.4975601184
 C         -4.8718886495       -1.2323920814        0.0066185838
 C         -5.6317043016       -2.2697175474       -0.4928850713
 C         -5.1153705665       -3.0700681761       -1.5014099348
 Br        -6.1617419531       -4.5028332881       -2.1897090669
 C         -3.8461884108       -2.8416853840       -2.0132422437
 C         -3.0893526767       -1.8026537377       -1.5130722480
 C         -3.4164892535        1.2613704900        0.3968993892
 C         -4.5116080143        1.7697569193       -0.3081802633
 C         -5.1028723244        2.9551115719        0.0760550430
 C         -4.6007706843        3.6460394580        1.1691786343
 Br        -5.4167780292        5.2800428990        1.7024686303
 C         -3.5126408692        3.1608046087        1.8796101037
 C         -2.9248981900        1.9740410243        1.4948761522
 C         -0.5619707596        0.9508868405       -0.1354945757
 C          0.7981475517        0.7850965812        0.0073570782
 C          3.6529837063       -0.0320745056       -0.2958948898
 C          5.0502945043       -0.1831956531       -0.1767910338
 H          7.4769521050        2.0666362734       -2.4588213095
 H          9.8876622484        2.4827577206       -2.0828286185
 H         11.0880371151        1.2814966409       -0.2742310340
 H          9.8462407844       -0.3881613118        1.1022242403
 H          5.0798552553       -2.1048146957        2.6153391485
 H          2.6250012371       -1.7639658150        2.4277761277
 H          0.8477157362       -2.4330463019        1.0370848999
 H         -1.5733983126       -2.1445049054        0.7944088483
 H         -5.2618162418       -0.6178402220        0.8048256263
 H         -6.6158552117       -2.4639092130       -0.0952958514
 H         -3.4578199945       -3.4655195774       -2.8033112862
 H         -2.1063639694       -1.6101767053       -1.9170689347
 H         -4.8870280159        1.2383038275       -1.1703562996
 H         -5.9426861481        3.3476939715       -0.4758939872
 H         -3.1341277529        3.7033771164        2.7320250860
 H         -2.0868521062        1.5838954951        2.0531311731
 H         -0.9609846811        1.8948768939       -0.4773465311
 H          1.4586845119        1.6109980375       -0.2074539306
 H          3.2964586112        0.5352869764       -1.1426687959
  57
  -102.227209613300       0.115531460556827      !
 O          5.2890894627        1.3723110442        1.9791104607
 C          5.8327136112        0.6657612161        1.0951447100
 C          7.2444438048        0.3242462041        1.1806740133
 C          7.9114614058        0.6383165241        2.3858534072
 C          9.2155258092        0.2610997790        2.5866795123
 C          9.9181356901       -0.4374757673        1.6063441194
 C          9.2950283600       -0.7259487288        0.4042736986
 C          7.9865683032       -0.3363980406        0.2025992902
 S          7.2966732573       -0.5744537944       -1.4265210079
 O          7.5871237292        0.5965501680       -2.2214251962
 O          7.7211979479       -1.8390782160       -1.9736231044
 C          5.5509603217       -0.6132635543       -1.0799611897
 C          4.7218082966       -1.2491714975       -1.9822141376
 C          3.3506319499       -1.1653374548       -1.8429558781
 C          2.8021054369       -0.4123657034       -0.7868042531
 C          1.3519745029       -0.2981778138       -0.6143701272
 C          0.5085843179       -1.3816819895       -0.8752953223
 C         -0.8540609187       -1.2782792840       -0.7058486968
 C         -1.4225151100       -0.0785118141       -0.2693642026
 N         -2.8059469912        0.0300325408       -0.0915239460
 C         -3.5319103834       -1.0501410010        0.4138625569
 C         -2.9730559223       -1.8861628588        1.3848985320
 C         -3.6874996780       -2.9557275562        1.8828573313
 C         -4.9705302503       -3.1976098924        1.4143454053
 Br        -5.9589725001       -4.6715953162        2.1013311883
 C         -5.5432310383       -2.3795762130        0.4516277585
 C         -4.8256327045       -1.3119175729       -0.0462142561
 C         -3.4571355355        1.2249310536       -0.4081292767
 C         -3.0578900238        1.9738792182       -1.5186472898
 C         -3.6966427166        3.1555680106       -1.8316237863
 C         -4.7425177909        3.5983291733       -1.0348871746
 Br        -5.6262456626        5.2278589628       -1.4661216826
 C         -5.1532276350        2.8698398942        0.0715043670
 C         -4.5117268187        1.6887542877        0.3826910160
 C         -0.5868068807        1.0112605391       -0.0111769924
 C          0.7752202330        0.8976498104       -0.1772317822
 C          3.6455103219        0.2018252155        0.1185617030
 C          5.0466531384        0.0872272736        0.0222256424
 H          7.3462672478        1.1686376869        3.1379710644
 H          9.6989502996        0.5043733574        3.5215860930
 H         10.9400321793       -0.7400929101        1.7714765238
 H          9.8046509020       -1.2431623308       -0.3934786125
 H          5.1760907658       -1.7853112958       -2.8006323721
 H          2.7062036559       -1.6326972559       -2.5703301833
 H          0.9312363657       -2.3190408196       -1.2036751386
 H         -1.4930331111       -2.1220663378       -0.9233106892
 H         -1.9795445342       -1.6834659024        1.7565102492
 H         -3.2548305688       -3.5943405721        2.6372306563
 H         -6.5388524929       -2.5821992485        0.0885497954
 H         -5.2605503544       -0.6825905675       -0.8087644824
 H         -2.2517339651        1.6162499787       -2.1419870013
 H         -3.3911842699        3.7270554999       -2.6943489921
 H         -5.9610544149        3.2288818765        0.6901694903
 H         -4.8164163836        1.1261507579        1.2528182825
 H         -1.0147435380        1.9409492653        0.3345563507
 H          1.4060056072        1.7500941475        0.0219394853
 H          3.2598364602        0.7500875571        0.9649947648
  57
  -102.227173860200       0.111242125069610      !
 O          5.2638049142        0.0343959492        2.4597303427
 C          5.8119804349       -0.0785414473        1.3363053554
 C          7.2352881467        0.1772214042        1.1740695608
 C          7.9142699872        0.7585600695        2.2679492153
 C          9.2325883058        1.1249380523        2.1622940123
 C          9.9372245974        0.9294407680        0.9758416809
 C          9.3010252990        0.3303343101       -0.0980308948
 C          7.9780410192       -0.0451717848        0.0154171088
 S          7.2630791128       -0.9779092017       -1.3283565738
 O          7.7263972414       -0.4724612602       -2.5965365481
 O          7.4878242561       -2.3824743051       -1.0772921650
 C          5.5297496688       -0.6294827857       -1.1258924707
 C          4.7055344124       -0.7437223267       -2.2274439842
 C          3.3362133740       -0.6404278579       -2.0830073978
 C          2.7835081977       -0.4388490462       -0.8034600419
 C          1.3355234910       -0.3200767214       -0.6165792495
 C          0.5460247660        0.3533479472       -1.5528276410
 C         -0.8131061675        0.4814599782       -1.3737750299
 C         -1.4312744521       -0.0698521668       -0.2485283208
 N         -2.8134248717        0.0623393560       -0.0642407762
 C         -3.5510210046       -1.0019836650        0.4557915738
 C         -4.6319237184       -0.7688612710        1.3109109843
 C         -5.3597035082       -1.8229534333        1.8226511237
 C         -5.0098741790       -3.1220720849        1.4851583954
 Br        -6.0140446706       -4.5770491257        2.1896284589
 C         -3.9379270269       -3.3747484332        0.6417589857
 C         -3.2133874793       -2.3188784444        0.1297375225
 C         -3.4406678131        1.2639070310       -0.3987479998
 C         -2.7853236372        2.4813104858       -0.1923053268
 C         -3.3965625270        3.6713268888       -0.5279827896
 C         -4.6719085887        3.6536809739       -1.0730575232
 Br        -5.5180719507        5.2942425536       -1.5358481312
 C         -5.3391392216        2.4561839069       -1.2859840843
 C         -4.7247807044        1.2674782717       -0.9510526315
 C         -0.6510167391       -0.7505801092        0.6888641502
 C          0.7094213573       -0.8653867666        0.5075353082
 C          3.6222948584       -0.3118107108        0.2864745671
 C          5.0240591983       -0.3607327067        0.1518124842
 H          7.3472692465        0.9126016513        3.1739732252
 H          9.7261747980        1.5763375279        3.0104777319
 H         10.9709872894        1.2258478005        0.8942182376
 H          9.8117529126        0.1361315241       -1.0281507955
 H          5.1603823580       -0.9365069207       -3.1864780219
 H          2.6935196252       -0.7644918537       -2.9399797873
 H          1.0098073120        0.7917704241       -2.4233238978
 H         -1.4120527711        0.9977318307       -2.1101568145
 H         -4.8891362428        0.2435502473        1.5856421167
 H         -6.1888124176       -1.6389957158        2.4881494410
 H         -3.6789014959       -4.3890550002        0.3804515289
 H         -2.3870834105       -2.5081241932       -0.5393377874
 H         -1.7981405374        2.4888860308        0.2455088463
 H         -2.8897902781        4.6088027346       -0.3592418855
 H         -6.3270326758        2.4546524034       -1.7198480189
 H         -5.2325425257        0.3315351318       -1.1321306546
 H         -1.1194576993       -1.1732636106        1.5657957888
 H          1.2988635749       -1.3961726092        1.2390309435
 H          3.2351400204       -0.1143874666        1.2749110071
  57
  -102.227127947400       0.105966652392244      !
 O          5.2356926607        1.2608957663        2.0254467610
 C          5.7842209930        0.5967523506        1.1128383510
 C          7.1746057192        0.1830361296        1.2248560369
 C          7.7992799059        0.3550346349        2.4801183068
 C          9.0737532239       -0.1043787297        2.6990213094
 C          9.7870174606       -0.7464499373        1.6882488147
 C          9.2069219658       -0.8950984725        0.4399639918
 C          7.9282058254       -0.4246865135        0.2216092226
 S          7.2946340740       -0.4786252978       -1.4464871656
 O          7.6377255661        0.7601495768       -2.1054907289
 O          7.7119796979       -1.6904684281       -2.1064957025
 C          5.5388374901       -0.5105100381       -1.1585365429
 C          4.7230461130       -1.0708351324       -2.1209847620
 C          3.3500064901       -0.9755960149       -2.0069986894
 C          2.7886325846       -0.2816243495       -0.9183447821
 C          1.3369355488       -0.1725267134       -0.7534405559
 C          0.5022287397       -1.2561503632       -1.0384948633
 C         -0.8580860169       -1.1730545078       -0.8414512805
 C         -1.4299273189        0.0073166190       -0.3602354695
 N         -2.8112555968        0.0823279787       -0.1361493974
 C         -3.4717055047       -1.0111200886        0.4268955169
 C         -2.8321385431       -1.7991882301        1.3884334193
 C         -3.4746447729       -2.8856964872        1.9439159208
 C         -4.7663911051       -3.1930615640        1.5428044900
 Br        -5.6561551118       -4.6904676605        2.3093128907
 C         -5.4183766483       -2.4239873282        0.5901306210
 C         -4.7724605188       -1.3391521344        0.0343786005
 C         -3.5069859060        1.2488166751       -0.4533770783
 C         -3.1400494655        2.0054795170       -1.5702928134
 C         -3.8238148135        3.1599635912       -1.8892542013
 C         -4.8835517679        3.5683624137       -1.0927574123
 Br        -5.8326757947        5.1576421324       -1.5342535983
 C         -5.2609952384        2.8338461172        0.0217683106
 C         -4.5740084099        1.6809365504        0.3398276363
 C         -0.6055799528        1.1028294929       -0.0945919514
 C          0.7557630801        1.0071081625       -0.2811378982
 C          3.6175262564        0.2637391862        0.0422794199
 C          5.0178134736        0.1239117531       -0.0242780813
 H          7.2253881926        0.8442790646        3.2530245481
 H          9.5251764235        0.0297851933        3.6711408917
 H         10.7857694895       -1.1123057381        1.8666261516
 H          9.7285774022       -1.3634428587       -0.3799213869
 H          5.1888989501       -1.5594045035       -2.9624406408
 H          2.7146878033       -1.3885246594       -2.7743735308
 H          0.9314777868       -2.1776069013       -1.4016158198
 H         -1.4929802189       -2.0179256176       -1.0665497210
 H         -1.8320913154       -1.5455536542        1.7074089051
 H         -2.9793364385       -3.4860288821        2.6911920898
 H         -6.4196766623       -2.6786330503        0.2792009460
 H         -5.2692710320       -0.7483863850       -0.7211280802
 H         -2.3230151491        1.6748062265       -2.1942560435
 H         -3.5424590020        3.7361419301       -2.7570181340
 H         -6.0796896498        3.1672070646        0.6404487997
 H         -4.8522881732        1.1162257096        1.2174457815
 H         -1.0400775433        2.0187290829        0.2788272509
 H          1.3827415502        1.8588137874       -0.0668154650
 H          3.2177893539        0.7651654441        0.9110008853
  57
  -102.227075739100       0.100271137394948      !
 O          5.3554800279        1.5016887988       -1.8308503370
 C          5.8803725732        0.7436651417       -0.9782049439
 C          7.3119319302        0.4862830082       -0.9963990566
 C          8.0379111916        0.9710858976       -2.1076323501
 C          9.3760174868        0.7010423964       -2.2465503261
 C         10.0559443325       -0.0558886358       -1.2941331330
 C          9.3711490836       -0.5166597993       -0.1826644037
 C          8.0272167655       -0.2359333903       -0.0423650854
 S          7.2505022509       -0.7052331376        1.4953298910
 O          7.6898597449       -2.0171652559        1.9009708941
 O          7.4522326909        0.3597721407        2.4504557648
 C          5.5283423504       -0.7484541042        1.0465543869
 C          4.6711890469       -1.4798438242        1.8444018919
 C          3.3063297941       -1.4043918418        1.6504011391
 C          2.7901053143       -0.5656091414        0.6432439016
 C          1.3456054125       -0.4366133485        0.4389823822
 C          0.4883663589       -1.5264317045        0.6165877354
 C         -0.8730403899       -1.3947302294        0.4559304660
 C         -1.4269582911       -0.1593476141        0.1094330445
 N         -2.8108944295       -0.0097583513       -0.0284518294
 C         -3.5796691919       -1.0425996725       -0.5678864402
 C         -4.8627889129       -1.3008099137       -0.0767125489
 C         -5.6236549887       -2.3214965264       -0.6073852796
 C         -5.1050947945       -3.0962701650       -1.6345405745
 Br        -6.1531319767       -4.5059963586       -2.3666032168
 C         -3.8333348254       -2.8576326473       -2.1343540798
 C         -3.0754762683       -1.8345685035       -1.6034496162
 C         -3.4237428346        1.1758535192        0.3859314777
 C         -4.4919110094        1.7123408172       -0.3380715815
 C         -5.0943936282        2.8847348673        0.0687047173
 C         -4.6307735765        3.5322301374        1.2043983474
 Br        -5.4598549642        5.1503091829        1.7660274906
 C         -3.5713784382        3.0162156293        1.9362149820
 C         -2.9722549586        1.8427779507        1.5282326345
 C         -0.5754714657        0.9312822638       -0.0870959733
 C          0.7843368935        0.7905168706        0.0732897548
 C          3.6628114006        0.1362940364       -0.1655901017
 C          5.0602204701        0.0414021779       -0.0102154409
 H          7.4897984351        1.5457186263       -2.8395012658
 H          9.9058444393        1.0785950891       -3.1088173415
 H         11.1065354651       -0.2709867241       -1.4090073376
 H          9.8591507741       -1.0878262356        0.5915108685
 H          5.0975300523       -2.0824910707        2.6310423203
 H          2.6405209356       -1.9453380430        2.3036016729
 H          0.8982125880       -2.4900903941        0.8780935275
 H         -1.5221774179       -2.2430634121        0.6184632614
 H         -5.2551498646       -0.7056840352        0.7348039761
 H         -6.6105703231       -2.5220420769       -0.2201711904
 H         -3.4433812351       -3.4617253047       -2.9388363240
 H         -2.0906346334       -1.6338707268       -1.9984781179
 H         -4.8378027525        1.2130885789       -1.2312477554
 H         -5.9135490537        3.3002412179       -0.4973555130
 H         -3.2234598350        3.5245041227        2.8220471691
 H         -2.1554994848        1.4288994064        2.1007942621
 H         -0.9908526004        1.8867716749       -0.3724410233
 H          1.4244888657        1.6474098707       -0.0674915057
 H          3.3072284409        0.7527023266       -0.9775643213
  57
  -102.226999203400       9.247036435762006E-002 !
 O          5.3277739041        2.3676187052       -0.0079828913
 C          5.8696978204        1.2321358587        0.0096476991
 C          7.3160185745        1.1092608279        0.0778912348
 C          8.0546050074        2.3134877018        0.1497753656
 C          9.4235223792        2.3005997061        0.2308497280
 C         10.1270362887        1.0977990684        0.2453465782
 C          9.4255937262       -0.0931789794        0.1706391090
 C          8.0476180539       -0.0766165028        0.0873017157
 S          7.2597344649       -1.6765138019       -0.0328889405
 O          7.5975753914       -2.2770451866       -1.3022156846
 O          7.5811909751       -2.4579821589        1.1373899613
 C          5.5193402621       -1.2858805742       -0.0244449318
 C          4.6540855148       -2.3615309055       -0.0515057373
 C          3.2880443251       -2.1603972932       -0.0538225203
 C          2.7799377637       -0.8481204623       -0.0318029568
 C          1.3343636042       -0.6070552154       -0.0433090051
 C          0.4809978879       -1.4092960094       -0.8052234746
 C         -0.8797189956       -1.1980032807       -0.8061594388
 C         -1.4351348359       -0.1729858661       -0.0362147482
 N         -2.8206395856        0.0275674339       -0.0224346005
 C         -3.6753877936       -1.0773294807       -0.0500034978
 C         -3.3415585999       -2.2434920596        0.6445049038
 C         -4.1787767852       -3.3392423442        0.6157538512
 C         -5.3597429093       -3.2771589708       -0.1093288833
 Br        -6.5169480006       -4.7873020990       -0.1499822351
 C         -5.7085032688       -2.1294293656       -0.8059512038
 C         -4.8688284984       -1.0354391441       -0.7761261792
 C         -3.3431598535        1.3203693659        0.0171390563
 C         -2.6957588694        2.3668437194       -0.6464937512
 C         -3.2125655547        3.6450515331       -0.6094802312
 C         -4.3845998792        3.8884108583        0.0915687713
 Br        -5.1033887559        5.6496072153        0.1378076024
 C         -5.0405652848        2.8645709620        0.7593508291
 C         -4.5202463212        1.5878915233        0.7229115498
 C         -0.5881284105        0.6403185305        0.7207570983
 C          0.7724139036        0.4261771929        0.7113809016
 C          3.6567980673        0.2172206469       -0.0095625046
 C          5.0564483370        0.0335897725       -0.0127384981
 H          7.4890669073        3.2337154070        0.1376822306
 H          9.9601985269        3.2365541875        0.2844736573
 H         11.2033788050        1.0884300455        0.3117575911
 H          9.9259834833       -1.0488743542        0.1748811684
 H          5.0767112941       -3.3540650376       -0.0604372900
 H          2.6183107257       -3.0053735750       -0.0421877182
 H          0.8956516481       -2.1889837400       -1.4257281721
 H         -1.5242856865       -1.8147303056       -1.4157885414
 H         -2.4270244473       -2.2799102825        1.2178481962
 H         -3.9212169363       -4.2347231734        1.1598144850
 H         -6.6257555856       -2.0957356877       -1.3733584609
 H         -5.1277529141       -0.1448911068       -1.3299876926
 H         -1.7924976548        2.1685883636       -1.2040884159
 H         -2.7139929671        4.4476240927       -1.1305305425
 H         -5.9463494350        3.0672807942        1.3092760838
 H         -5.0180040333        0.7911630053        1.2558186747
 H         -1.0097375191        1.4245093596        1.3326715311
 H          1.4110370590        1.0442972244        1.3231996630
 H          3.3046083349        1.2380653500       -0.0188137399
  57
  -102.226630672200       6.260908485774422E-002 !
 O          5.1535557355        0.1318254359        2.5214243568
 C          5.7239003617       -0.0297668001        1.4165733497
 C          7.1104386871        0.3684464981        1.2232568492
 C          7.6958888587        1.1805344666        2.2192690726
 C          8.9524628631        1.7049750941        2.0459124853
 C          9.6857119810        1.4423574166        0.8897963959
 C          9.1481340217        0.6133022691       -0.0801075452
 C          7.8882264560        0.0812017948        0.1021005141
 S          7.2979770339       -1.1243860091       -1.0737291336
 O          7.7775281318       -0.8180012601       -2.3978898598
 O          7.5985587077       -2.4428968076       -0.5673037370
 C          5.5426336080       -0.8530495147       -0.9765215599
 C          4.7630676885       -1.0987153369       -2.0888279805
 C          3.3868441026       -1.0267687392       -1.9975958014
 C          2.7858734363       -0.7337327897       -0.7589290757
 C          1.3319427240       -0.6043205127       -0.6296850951
 C          0.5909769503        0.0644032727       -1.6072899592
 C         -0.7651603040        0.2539262670       -1.4609571960
 C         -1.4262774371       -0.2369149034       -0.3326531082
 N         -2.8008246136       -0.0172047818       -0.1659055032
 C         -3.6045698904       -1.0370208938        0.3464960558
 C         -3.3602628226       -2.3664094247       -0.0093706425
 C         -4.1497206535       -3.3809026042        0.4906144272
 C         -5.1908657531       -3.0730628918        1.3539632707
 Br        -6.2849596088       -4.4703364370        2.0415113429
 C         -5.4455657372       -1.7607074329        1.7240538633
 C         -4.6543581091       -0.7481328696        1.2226802916
 C         -3.3417764966        1.2298817643       -0.4762947091
 C         -4.6385642902        1.3371194185       -0.9880011353
 C         -5.1725209262        2.5724999759       -1.2899220567
 C         -4.4110581230        3.7141803361       -1.0872807307
 Br        -5.1473287442        5.4194867866       -1.5013837694
 C         -3.1201599368        3.6290906413       -0.5870649627
 C         -2.5899565777        2.3929959777       -0.2825626541
 C         -0.6988266459       -0.9358003116        0.6329003803
 C          0.6608455470       -1.1040316461        0.4887671679
 C          3.5788250773       -0.4908837667        0.3454711739
 C          4.9842340301       -0.4865978112        0.2543827864
 H          7.1063119711        1.3842406579        3.1006585406
 H          9.3733158658        2.3358996086        2.8150727146
 H         10.6689155093        1.8646464165        0.7546580875
 H          9.6890255183        0.3578746328       -0.9778046039
 H          5.2576283860       -1.3627761435       -3.0104722068
 H          2.7755126974       -1.2410555128       -2.8598840606
 H          1.0930504655        0.4564089827       -2.4788558728
 H         -1.3273104103        0.7776526569       -2.2207308281
 H         -2.5546786854       -2.5967990879       -0.6907237789
 H         -3.9634937696       -4.4051003290        0.2068838935
 H         -6.2507955702       -1.5348440459        2.4057176043
 H         -4.8380542561        0.2738421873        1.5201219273
 H         -5.2210626388        0.4445142350       -1.1628811096
 H         -6.1707600673        2.6499264753       -1.6921153279
 H         -2.5385908289        4.5236976197       -0.4268822379
 H         -1.5924672704        2.3228226212        0.1250437460
 H         -1.2055162740       -1.3214039127        1.5056914729
 H          1.2153717790       -1.6351786022        1.2470762795
 H          3.1475370597       -0.2255172336        1.2991525451
