  106
  -173.879022544400       0.450728890441140      !
 O          2.2259817891        3.7936432733       -0.4358753982
 C          1.1140476788        3.3284919836       -0.2067791683
 C          0.6857078344        1.9599376206       -0.0817384678
 C         -0.7354123740        1.9431935264        0.1024385225
 C         -1.4294933270        0.7308826555        0.1613127508
 N         -2.8217619069        0.7010122618        0.2935246840
 C         -3.5196581899       -0.0134738295        1.2410943181
 C         -3.0528599063       -0.6320322170        2.3917934502
 C         -3.9694679797       -1.3081192389        3.1752486907
 C         -5.3193246868       -1.3447882044        2.8395466718
 C         -5.7977594535       -0.6787739726        1.7228712927
 C         -4.8966751818       -0.0009140554        0.9193468191
 C         -5.0239194565        0.7877104266       -0.2781399035
 C         -6.0976185030        1.1414105535       -1.0782786370
 C         -5.8576622340        1.9070365655       -2.2067588050
 C         -4.5670361221        2.3061099654       -2.5433355875
 C         -3.4797068776        1.9594404245       -1.7638282641
 C         -3.7186140326        1.2097873284       -0.6208988801
 C         -0.7073585954       -0.4621560192        0.0795276472
 N         -1.3729757954       -1.6970329288        0.1484299408
 C         -1.2078721192       -2.6625403562        1.1218005851
 C         -0.3241227712       -2.6982781380        2.1900424180
 C         -0.3754177090       -3.7907577317        3.0341985558
 C         -1.2950609143       -4.8176039432        2.8377038103
 C         -2.2008774774       -4.7700850275        1.7945161464
 C         -2.1630125665       -3.6864687542        0.9300802781
 C         -2.9477636259       -3.3055539358       -0.2112033987
 C         -4.0202602767       -3.8837351014       -0.8727321838
 C         -4.5428487375       -3.2381588730       -1.9782038764
 C         -3.9881615461       -2.0484945763       -2.4434823868
 C         -2.9158320843       -1.4576466884       -1.8046102916
 C         -2.4213100604       -2.0749239224       -0.6639637647
 C          0.7129994317       -0.4450971099       -0.0618328159
 N          1.4097894571       -1.6625408682       -0.1339952302
 C          1.2760428967       -2.6257626269       -1.1142161858
 C          0.3931044259       -2.6823558144       -2.1822388411
 C          0.4824750211       -3.7639396384       -3.0370808173
 C          1.4376185252       -4.7597177341       -2.8504120922
 C          2.3404560162       -4.6916669056       -1.8057629192
 C          2.2650473755       -3.6186492821       -0.9307425936
 C          3.0368297265       -3.2210288462        0.2137106842
 C          4.1277317657       -3.7682152320        0.8715038315
 C          4.6290000616       -3.1134101700        1.9814797119
 C          4.0363982284       -1.9453117528        2.4545221024
 C          2.9454777908       -1.3853789039        1.8192623617
 C          2.4705790237       -2.0115249590        0.6751462096
 C          1.4070316876        0.7642110678       -0.1450708002
 N          2.7986107893        0.7647297724       -0.2892772966
 C          3.4999396772        0.0710100431       -1.2495347947
 C          3.0326479574       -0.5441673784       -2.4018597337
 C          3.9530560624       -1.1965908895       -3.2006515414
 C          5.3064354881       -1.2136391594       -2.8776202168
 C          5.7841232720       -0.5504956684       -1.7589327066
 C          4.8794092706        0.1045061665       -0.9405207008
 C          5.0040324244        0.8849311436        0.2626190485
 C          6.0786805279        1.2514761152        1.0555586571
 C          5.8358224174        2.0045853253        2.1918381522
 C          4.5417679060        2.3796120025        2.5426926780
 C          3.4534728432        2.0201201427        1.7704285624
 C          3.6948036799        1.2816344455        0.6208147498
 C         -1.1947999947        3.3019312838        0.2284598363
 O         -2.3169182117        3.7411273974        0.4589665790
 N         -0.0495411403        4.0985584833        0.0106027379
 C         -0.0663651047        5.4973891568        0.0081951713
 C         -0.8763175502        6.1915969841        0.9073933532
 C         -0.8932302220        7.5720882978        0.8951247435
 C         -0.1023059729        8.2763965133        0.0007480507
 C          0.7071248636        7.5879403253       -0.8894795358
 C          0.7260047421        6.2074358793       -0.8942529269
 H         -2.0140698958       -0.5803427571        2.6756499841
 H         -3.6300914746       -1.8148157146        4.0660704057
 H         -6.0056560058       -1.8869818400        3.4721435558
 H         -6.8503001773       -0.6857426449        1.4850860807
 H         -7.0982867367        0.8241512717       -0.8277881605
 H         -6.6818458271        2.1984903079       -2.8402637679
 H         -4.4130828866        2.8988015370       -3.4326626888
 H         -2.4823896403        2.2702913834       -2.0313223503
 H          0.3764137786       -1.8998853106        2.3732258579
 H          0.3095067170       -3.8454224608        3.8673575322
 H         -1.3051611111       -5.6548659439        3.5190702039
 H         -2.9269068904       -5.5564150706        1.6556227493
 H         -4.4352771537       -4.8195315142       -0.5311017838
 H         -5.3841052925       -3.6672539820       -2.5010275940
 H         -4.4028588980       -1.5778733772       -3.3223114859
 H         -2.4830434265       -0.5468990070       -2.1889049208
 H         -0.3346835773       -1.9069741061       -2.3576553083
 H         -0.1997514534       -3.8340009557       -3.8712952285
 H          1.4778720689       -5.5886587199       -3.5408290427
 H          3.0933513189       -5.4537032970       -1.6745247051
 H          4.5732465342       -4.6876390344        0.5238512757
 H          5.4837551840       -3.5185504334        2.5015442619
 H          4.4362344555       -1.4669063919        3.3360146891
 H          2.4837422341       -0.4910608307        2.2085163984
 H          1.9903735470       -0.5068205036       -2.6750568060
 H          3.6141324344       -1.6999924364       -4.0935043865
 H          5.9956875806       -1.7378622571       -3.5220842652
 H          6.8388474662       -0.5416729276       -1.5310976480
 H          7.0823699531        0.9536438181        0.7935866708
 H          6.6606734942        2.3055090628        2.8199956675
 H          4.3860254456        2.9637583677        3.4373418327
 H          2.4534806961        2.3132440258        2.0477400321
 H         -1.4992405258        5.6431907137        1.5935844417
 H         -1.5249107609        8.1026576113        1.5919438744
 H         -0.1159366020        9.3561256565       -0.0019061731
 H          1.3261860447        8.1308713879       -1.5881607355
 H          1.3633934210        5.6715590833       -1.5770778410
  106
  -173.878813444000       0.361259690612926      !
 O          2.2533787118        3.8077440119       -0.1740646925
 C          1.1202326289        3.3357588791       -0.1402641089
 C          0.6841948804        1.9640966859       -0.1154672332
 C         -0.7344954136        1.9448747614        0.0860273438
 C         -1.4161650037        0.7328619603        0.2407232413
 N         -2.7835473824        0.7116222527        0.5313906268
 C         -3.3567970495        1.2515080587        1.6632562200
 C         -2.7819718702        2.0355411697        2.6532731553
 C         -3.5783220053        2.4121342179        3.7185466089
 C         -4.9070598184        2.0071738627        3.8099331749
 C         -5.4774045478        1.2045088455        2.8364368398
 C         -4.7008118233        0.8218373627        1.7554815468
 C         -4.9447371927       -0.0057536290        0.6031653413
 C         -6.0438333803       -0.7116103182        0.1441924013
 C         -5.9304925630       -1.4145331581       -1.0442478075
 C         -4.7546444063       -1.3848650498       -1.7876639581
 C         -3.6470071990       -0.6818336847       -1.3519658643
 C         -3.7363451049       -0.0293803526       -0.1308738479
 C         -0.7028183321       -0.4615181732        0.1188425231
 N         -1.3599245416       -1.6949826046        0.2578540223
 C         -2.1162036823       -2.0640458702        1.3504843490
 C         -2.2512357026       -1.4314461226        2.5785694601
 C         -3.0819643683       -2.0146916090        3.5150964189
 C         -3.7432864681       -3.2115533046        3.2510159245
 C         -3.5678941723       -3.8730965778        2.0494982364
 C         -2.7434246350       -3.3032553959        1.0914594916
 C         -2.3273791870       -3.7001659386       -0.2249102857
 C         -2.6063305610       -4.7998352397       -1.0221220538
 C         -2.0466182933       -4.8621114213       -2.2846056528
 C         -1.2372567467       -3.8337743274       -2.7604805081
 C         -0.9516592755       -2.7251968940       -1.9872320231
 C         -1.4809887079       -2.6754172471       -0.7060406635
 C          0.7005667102       -0.4435697052       -0.1417276628
 N          1.3873757197       -1.6543263322       -0.3263641889
 C          2.1508412348       -1.9442804949       -1.4388456910
 C          2.2772811178       -1.2345613528       -2.6247771504
 C          3.1129045327       -1.7481032250       -3.5971744958
 C          3.7871665512       -2.9520572007       -3.4097789009
 C          3.6201910835       -3.6898614084       -2.2521818384
 C          2.7915756798       -3.1898951816       -1.2589608129
 C          2.3752911659       -3.6759273445        0.0270722882
 C          2.6604267671       -4.8258937767        0.7471266139
 C          2.0927968193       -4.9823101297        1.9977080739
 C          1.2699119512       -3.9973715755        2.5378143571
 C          0.9778861878       -2.8404580314        1.8419894150
 C          1.5146391597       -2.6946158672        0.5710049941
 C          1.3951762490        0.7658223424       -0.2308252113
 N          2.7804657038        0.7542001375       -0.4229611590
 C          3.4611314429        1.3003021762       -1.4879199523
 C          2.9827226797        2.0672797427       -2.5412154506
 C          3.8832462847        2.4544745944       -3.5152747116
 C          5.2228509095        2.0795095130       -3.4560314893
 C          5.7002399147        1.2969306982       -2.4183960410
 C          4.8174347885        0.9027058521       -1.4270179691
 C          4.9535125951        0.0920117941       -0.2452992853
 C          6.0150749834       -0.5691053350        0.3497531132
 C          5.7891863212       -1.2577448533        1.5304535472
 C          4.5346569288       -1.2607333842        2.1321140231
 C          3.4626122950       -0.6019491222        1.5595549621
 C          3.6718907904        0.0408779697        0.3483650085
 C         -1.2185987249        3.2999229938        0.0556950788
 O         -2.3679603923        3.7312375087        0.0773521784
 N         -0.0633037952        4.1016621469       -0.0685590946
 C         -0.0913079259        5.4973603250       -0.1451916238
 C          0.8632656624        6.1793504915       -0.9003509417
 C          0.8257331230        7.5571543591       -0.9800283153
 C         -0.1600572324        8.2739392188       -0.3210913311
 C         -1.1099802902        7.5981588082        0.4275332858
 C         -1.0790825743        6.2209524175        0.5230190319
 H         -1.7517520653        2.3486858384        2.5927925989
 H         -3.1607390232        3.0316023180        4.4983066262
 H         -5.4973836351        2.3218337307        4.6572834724
 H         -6.5037256766        0.8810816566        2.9180797098
 H         -6.9687429439       -0.7123178497        0.7000607848
 H         -6.7731050655       -1.9799974632       -1.4122210608
 H         -4.7052883459       -1.9191054608       -2.7244527586
 H         -2.7507590577       -0.6358327764       -1.9492548299
 H         -1.7260302039       -0.5161630590        2.8046037834
 H         -3.2189791100       -1.5326336253        4.4715106679
 H         -4.3892798945       -3.6339285977        4.0056804735
 H         -4.0594683013       -4.8149464648        1.8599828037
 H         -3.2506559382       -5.5875934679       -0.6629219046
 H         -2.2469332096       -5.7125271532       -2.9186539783
 H         -0.8276990239       -3.9002246501       -3.7575124285
 H         -0.3452748314       -1.9260881681       -2.3822161203
 H          1.7381923282       -0.3153731296       -2.7936428277
 H          3.2423462464       -1.2056418415       -4.5217302575
 H          4.4358443936       -3.3195247528       -4.1903927703
 H          4.1207845825       -4.6372322998       -2.1236885864
 H          3.3141843513       -5.5804479714        0.3372400111
 H          2.2966332177       -5.8737289994        2.5713744787
 H          0.8532621653       -4.1379144825        3.5241374717
 H          0.3577821085       -2.0797343496        2.2877696740
 H          1.9462246950        2.3596997018       -2.5959582043
 H          3.5419535301        3.0607209754       -4.3411504135
 H          5.8964681720        2.4029236836       -4.2352262865
 H          6.7366435350        0.9980765827       -2.3822410475
 H          6.9978949410       -0.5443613998       -0.0950524243
 H          6.6023470933       -1.7862757615        2.0042990204
 H          4.3949676181       -1.7839630826        3.0660359344
 H          2.5024551556       -0.5782293177        2.0490396984
 H          1.6296141139        5.6240138636       -1.4141005349
 H          1.5682702703        8.0746153517       -1.5693453441
 H         -0.1874768119        9.3509641207       -0.3903965057
 H         -1.8788000574        8.1486706499        0.9492346457
 H         -1.8197306308        5.6969310240        1.1029788660
  106
  -173.878196266200       0.188011418945935      !
 O          2.2106807756        3.7888851937       -0.5351602838
 C          1.1119472949        3.3292844254       -0.2358729622
 C          0.6851633809        1.9618712851       -0.1011432933
 C         -0.7324824630        1.9470920053        0.1055029236
 C         -1.4263261739        0.7349196994        0.1749197805
 N         -2.8169787952        0.7068284227        0.3203042555
 C         -3.5103626365       -0.0160637609        1.2646221124
 C         -3.0376749940       -0.6509703339        2.4040072611
 C         -3.9514021872       -1.3318734982        3.1864507159
 C         -5.3041570935       -1.3581498758        2.8612713696
 C         -5.7880608252       -0.6763844780        1.7566794066
 C         -4.8898463361        0.0069520861        0.9545062356
 C         -5.0233958044        0.8110837431       -0.2319357266
 C         -6.1023309191        1.1800350657       -1.0180644400
 C         -5.8687607421        1.9587796959       -2.1388647951
 C         -4.5790488508        2.3550457494       -2.4820578303
 C         -3.4865427018        1.9929529716       -1.7165910179
 C         -3.7189279098        1.2311710211       -0.5803131393
 C         -0.7063796918       -0.4580172434        0.0794259060
 N         -1.3705158890       -1.6931111527        0.1527208907
 C         -1.1764368347       -2.6697227264        1.1089655608
 C         -0.2868257797       -2.6993991744        2.1726324257
 C         -0.3037152850       -3.8075458895        2.9973494754
 C         -1.1968589290       -4.8548863300        2.7872137156
 C         -2.1116031204       -4.8121700188        1.7515144069
 C         -2.1079063488       -3.7128845102        0.9062530121
 C         -2.9093145894       -3.3314436509       -0.2233061687
 C         -3.9709189643       -3.9249992787       -0.8887823569
 C         -4.5159938509       -3.2742066941       -1.9802726616
 C         -3.9942044954       -2.0630393398       -2.4279360210
 C         -2.9326849406       -1.4567471936       -1.7854957867
 C         -2.4154050169       -2.0811108586       -0.6588433660
 C          0.7127173977       -0.4428167183       -0.0800777081
 N          1.4039673179       -1.6627055484       -0.1567121825
 C          1.2315722271       -2.6412963706       -1.1151952569
 C          0.3420415184       -2.6889928087       -2.1782262453
 C          0.3830923268       -3.7950653313       -3.0050115820
 C          1.2998520332       -4.8223529390       -2.7977332084
 C          2.2151576809       -4.7602694575       -1.7635254291
 C          2.1877036194       -3.6626796862       -0.9164291291
 C          2.9832278981       -3.2639982776        0.2113469018
 C          4.0635898507       -3.8307960870        0.8699578860
 C          4.5978248161       -3.1676184708        1.9593091060
 C          4.0463894588       -1.9718336354        2.4127287775
 C          2.9655910917       -1.3926479305        1.7774912323
 C          2.4598368836       -2.0273634176        0.6514178128
 C          1.4060110743        0.7657132737       -0.1716273941
 N          2.7971439715        0.7721053111       -0.3132356190
 C          3.5125012890        0.0734276335       -1.2590991226
 C          3.0599056439       -0.5732683346       -2.4000579499
 C          3.9946279898       -1.2229239446       -3.1842636510
 C          5.3476734759       -1.2068746473       -2.8594588415
 C          5.8098647307       -0.5137122459       -1.7526393475
 C          4.8905488179        0.1381335180       -0.9481652455
 C          4.9988325329        0.9416542414        0.2413105921
 C          6.0652471874        1.3397954599        1.0303442607
 C          5.8069456299        2.1057052386        2.1545641185
 C          4.5054551869        2.4609518816        2.4981397826
 C          3.4253240358        2.0695567617        1.7295664767
 C          3.6819971426        1.3204838908        0.5900464912
 C         -1.1866006305        3.3060810045        0.2400734615
 O         -2.2943457853        3.7440429801        0.5383990742
 N         -0.0451171680        4.1035506093        0.0022216411
 C         -0.0579713064        5.5012486088        0.0025460081
 C         -1.2106370645        6.1968817345       -0.3648733143
 C         -1.2173241794        7.5774130316       -0.3573552340
 C         -0.0823853281        8.2858920573        0.0023819166
 C          1.0648969309        7.5974516504        0.3619221607
 C          1.0823255224        6.2170439600        0.3697357592
 H         -1.9966931174       -0.6076278433        2.6806740050
 H         -3.6076112197       -1.8507047014        4.0685720596
 H         -5.9879765869       -1.9044263046        3.4930557286
 H         -6.8424810976       -0.6748337567        1.5272482362
 H         -7.1021754973        0.8642796944       -0.7626814841
 H         -6.6969753030        2.2621666730       -2.7613415225
 H         -4.4297339676        2.9573093677       -3.3659375418
 H         -2.4897256284        2.2995681776       -1.9914528727
 H          0.3920516774       -1.8848102723        2.3664525574
 H          0.3874913375       -3.8586740737        3.8255059116
 H         -1.1795977635       -5.7047321495        3.4526259600
 H         -2.8179530043       -5.6146296398        1.6037280222
 H         -4.3601985285       -4.8767741418       -0.5612681104
 H         -5.3491893317       -3.7155438144       -2.5058363776
 H         -4.4260556455       -1.5879796409       -3.2961006886
 H         -2.5243187485       -0.5299357069       -2.1576978773
 H         -0.3550706724       -1.8894860978       -2.3700754292
 H         -0.3073157972       -3.8600482509       -3.8328374826
 H          1.3009927180       -5.6712927192       -3.4645705462
 H          2.9399506732       -5.5465607833       -1.6181530463
 H          4.4761322887       -4.7712192923        0.5381858105
 H          5.4459634112       -3.5872597988        2.4787258963
 H          4.4700979124       -1.4873583241        3.2796918286
 H          2.5343723407       -0.4782440442        2.1544886357
 H          2.0180326349       -0.5624884422       -2.6765287259
 H          3.6673095843       -1.7500621581       -4.0677353572
 H          6.0484009728       -1.7290438364       -3.4930721436
 H          6.8637193383       -0.4793429132       -1.5232662150
 H          7.0745422991        1.0558085255        0.7747825123
 H          6.6248673963        2.4309016549        2.7796695226
 H          4.3368645651        3.0533337289        3.3851756546
 H          2.4193047141        2.3443343666        2.0047770356
 H         -2.0942452645        5.6490539868       -0.6453843881
 H         -2.1153391788        8.1044265111       -0.6443624437
 H         -0.0921000451        9.3653764471        0.0032493648
 H          1.9529109563        8.1398282165        0.6507015411
 H          1.9743517016        5.6849960701        0.6534422152
