  106
       -174.52672745
 O          2.3270471854        3.7163000203       -0.5505656981
 C          1.2158621310        3.2920843559       -0.2450663141
 C          0.7465817235        1.9390319227       -0.1067178361
 C         -0.6697111840        1.9694642863        0.1073594778
 C         -1.4013265239        0.7800016105        0.1816362011
 N         -2.7913853820        0.7962193726        0.3343248832
 C         -3.5023978251        0.0965168546        1.2829914039
 C         -3.0441222330       -0.5521172960        2.4205307224
 C         -3.9748822615       -1.2029904115        3.2084356784
 C         -5.3294819538       -1.1865613413        2.8903670521
 C         -5.7972965498       -0.4907062716        1.7876315853
 C         -4.8820677409        0.1630750225        0.9800759083
 C         -4.9962542777        0.9700367962       -0.2064660600
 C         -6.0670502667        1.3724058325       -0.9873114498
 C         -5.8147682109        2.1423881441       -2.1101082555
 C         -4.5149462038        2.4971977635       -2.4604479347
 C         -3.4304771404        2.1012352330       -1.7003421322
 C         -3.6809546777        1.3481825186       -0.5620914326
 C         -0.7201414401       -0.4352817465        0.0835861603
 N         -1.4227722046       -1.6485947703        0.1616087399
 C         -1.2547766404       -2.6300671337        1.1178148917
 C         -0.3609711197       -2.6870837830        2.1768411016
 C         -0.4087043321       -3.7934353328        3.0027590142
 C         -1.3357527936       -4.8120559566        2.7983628810
 C         -2.2541171090       -4.7411840095        1.7674221319
 C         -2.2199593335       -3.6432875647        0.9210381977
 C         -3.0147830894       -3.2375415889       -0.2046978460
 C         -4.0981899496       -3.7976416935       -0.8640066790
 C         -4.6280586885       -3.1307896979       -1.9532891222
 C         -4.0704311333       -1.9371871250       -2.4049055330
 C         -2.9868257953       -1.3643737677       -1.7686448037
 C         -2.4837132195       -2.0038975224       -0.6440820949
 C          0.6978634472       -0.4652992085       -0.0833572428
 N          1.3496101507       -1.7065933605       -0.1623706301
 C          1.1411815649       -2.6800267874       -1.1189451209
 C          0.2450024617       -2.7003459686       -2.1772573906
 C          0.2465536606       -3.8078648076       -3.0031237249
 C          1.1313041810       -4.8635772182       -2.7996038604
 C          2.0535500785       -4.8297213881       -1.7702638750
 C          2.0654260767       -3.7310956750       -0.9241494169
 C          2.8791349174       -3.3569279143        0.1990428769
 C          3.9444026132       -3.9571969615        0.8525655935
 C          4.5051552925       -3.3103997322        1.9384327153
 C          3.9943681814       -2.0973189444        2.3935187002
 C          2.9291807290       -1.4846345800        1.7633588072
 C          2.3976046893       -2.1039198236        0.6405920835
 C          1.4286968805        0.7205217003       -0.1797599072
 N          2.8185665081        0.6826036019       -0.3286528929
 C          3.5063862172       -0.0392451956       -1.2775378794
 C          3.0274823685       -0.6722059770       -2.4154558429
 C          3.9369610669       -1.3518881539       -3.2038830702
 C          5.2915244223       -1.3785486876       -2.8861801209
 C          5.7813149309       -0.6994786646       -1.7824983621
 C          4.8874109076       -0.0180796151       -0.9738858710
 C          5.0274171103        0.7826043207        0.2141912234
 C          6.1100759961        1.1473406442        0.9972288512
 C          5.8821490213        1.9220212341        2.1220075184
 C          4.5944233702        2.3187192931        2.4720290680
 C          3.4983770232        1.9611786872        1.7095164516
 C          3.7251305799        1.2033652576        0.5694293157
 C         -1.0797265324        3.3423054179        0.2429259971
 O         -2.1714185564        3.8154847085        0.5466002879
 N          0.0852398289        4.1029135211       -0.0017052454
 C          0.1167826162        5.5003143337       -0.0027315491
 C         -1.0151272947        6.2318971032       -0.3648190509
 C         -0.9779280058        7.6119500955       -0.3586666024
 C          0.1808160144        8.2843270391       -0.0055928355
 C          1.3075321780        7.5600976743        0.3486365768
 C          1.2811534139        6.1798400398        0.3577592500
 H         -2.0008473121       -0.5416270819        2.6917017405
 H         -3.6431041418       -1.7317317255        4.0892716529
 H         -6.0269708271       -1.7103060296        3.5262752888
 H         -6.8523285704       -0.4558590513        1.5637202542
 H         -7.0750604466        1.0887846821       -0.7263792564
 H         -6.6361945143        2.4714009850       -2.7285495798
 H         -4.3512336192        3.0936652444       -3.3457074891
 H         -2.4258856887        2.3758004833       -1.9807278312
 H          0.3444445360       -1.8943052202        2.3662792906
 H          0.2848788381       -3.8657905773        3.8273382243
 H         -1.3419882397       -5.6614568228        3.4645374884
 H         -2.9863634749       -5.5209277779        1.6241485037
 H         -4.5157708546       -4.7362935465       -0.5334942927
 H         -5.4776044784       -3.5458845468       -2.4740372377
 H         -4.4915404526       -1.4493863067       -3.2712797745
 H         -2.5511961390       -0.4513168231       -2.1439189614
 H         -0.4273671204       -1.8792630718       -2.3662666983
 H         -0.4499171802       -3.8515871206       -3.8272587905
 H          1.1019738435       -5.7126898806       -3.4655764607
 H          2.7537612099       -5.6385142049       -1.6278889780
 H          4.3251188728       -4.9105302478        0.5195932925
 H          5.3422608621       -3.7563284435        2.4538292351
 H          4.4378059315       -1.6258116385        3.2577605270
 H          2.5292095237       -0.5566759149        2.1416799293
 H          1.9850366451       -0.6285726652       -2.6864811382
 H          3.5884216214       -1.8691124734       -4.0850944799
 H          5.9719708601       -1.9232487216       -3.5229218438
 H          6.8369220354       -0.6984060502       -1.5586785479
 H          7.1084840555        0.8312219905        0.7366768363
 H          6.7132644591        2.2216035518        2.7424936628
 H          4.4494015948        2.9169089912        3.3593336711
 H          2.5030539935        2.2680052692        1.9897091972
 H         -1.9171519450        5.7121744120       -0.6401461460
 H         -1.8602510134        8.1669780027       -0.6415047499
 H          0.2053935209        9.3635756624       -0.0057696741
 H          2.2138307654        8.0742390026        0.6322143339
 H          2.1573134490        5.6199676902        0.6373331396
  106
       -174.52628553
 O          2.3727475553        3.7323754515       -0.2153395548
 C          1.2255985080        3.2975252916       -0.1616097500
 C          0.7456468130        1.9407835064       -0.1284574620
 C         -0.6692055190        1.9677534640        0.0976336641
 C         -1.3871709186        0.7785736328        0.2648350249
 N         -2.7492678182        0.8018579715        0.5791964402
 C         -3.2849066357        1.3601323357        1.7205256552
 C         -2.6677686458        2.1250523840        2.6999660358
 C         -3.4328266056        2.5273816514        3.7786786348
 C         -4.7722532020        2.1658881197        3.8933406995
 C         -5.3852333630        1.3822004183        2.9303514662
 C         -4.6403894406        0.9744388405        1.8363057194
 C         -4.9310880417        0.1552108886        0.6888742578
 C         -6.0603766845       -0.5145018168        0.2494492831
 C         -5.9906220026       -1.2207573364       -0.9403718022
 C         -4.8275147140       -1.2293892610       -1.7040953008
 C         -3.6901868827       -0.5627787074       -1.2880882262
 C         -3.7370306753        0.0922531790       -0.0660075367
 C         -0.7152971077       -0.4383949728        0.1312862254
 N         -1.4096862849       -1.6498148254        0.2823917592
 C         -2.1584932021       -1.9940507073        1.3881931527
 C         -2.2515247490       -1.3573744276        2.6180702089
 C         -3.0844112181       -1.9132577528        3.5692074317
 C         -3.7888201307       -3.0879624187        3.3173336989
 C         -3.6559365214       -3.7548802770        2.1133365098
 C         -2.8301146283       -3.2121907031        1.1408070993
 C         -2.4501229965       -3.6224509631       -0.1823535346
 C         -2.7785137756       -4.7124681947       -0.9739689558
 C         -2.2431268117       -4.7929471184       -2.2459378725
 C         -1.4091100301       -3.7915063825       -2.7363791332
 C         -1.0742037782       -2.6928023925       -1.9688438534
 C         -1.5793105069       -2.6258021066       -0.6786899418
 C          0.6831933489       -0.4661403080       -0.1536053072
 N          1.3269250941       -1.6986137543       -0.3494305270
 C          2.0611209373       -2.0132802679       -1.4748235920
 C          2.1899841976       -1.3080687204       -2.6631807204
 C          2.9914440634       -1.8485513645       -3.6496334250
 C          3.6293174908       -3.0738123865       -3.4732688233
 C          3.4585402889       -3.8057750440       -2.3125222402
 C          2.6640033554       -3.2790886873       -1.3053627376
 C          2.2545105089       -3.7512958794       -0.0120193287
 C          2.5145267032       -4.9099246144        0.7036442593
 C          1.9639034012       -5.0477647736        1.9639767119
 C          1.1830102872       -4.0365556611        2.5177098011
 C          0.9167553548       -2.8707588941        1.8263874783
 C          1.4358243434       -2.7424825334        0.5461970050
 C          1.4151434316        0.7199998331       -0.2554412112
 N          2.7957762952        0.6632894279       -0.4715777366
 C          3.4752634471        1.1869318886       -1.5485022001
 C          3.0038558245        1.9690613848       -2.5937817050
 C          3.8994576193        2.3267256060       -3.5835431866
 C          5.2269757554        1.9083552802       -3.5473355734
 C          5.6965846970        1.1106657874       -2.5176870400
 C          4.8187611965        0.7453987839       -1.5109127258
 C          4.9488775784       -0.0692792972       -0.3312642933
 C          5.9985318114       -0.7645924830        0.2456615984
 C          5.7708826781       -1.4454985443        1.4305018393
 C          4.5275550151       -1.4076419632        2.0538407982
 C          3.4677402464       -0.7143189062        1.4995880817
 C          3.6767702174       -0.0786607336        0.2845776203
 C         -1.1094055075        3.3378410228        0.0749218650
 O         -2.2435717551        3.8063395087        0.1162688671
 N          0.0690389229        4.1015483016       -0.0698229473
 C          0.0851468869        5.4974174142       -0.1467653562
 C          1.0481563454        6.1479643079       -0.9187682319
 C          1.0541071486        7.5262587056       -0.9985793473
 C          0.1037552482        8.2747604533       -0.3230517697
 C         -0.8545181932        7.6302685608        0.4423331062
 C         -0.8668054151        6.2527875010        0.5380649874
 H         -1.6291085279        2.4044961908        2.6214380404
 H         -2.9818298334        3.1329393896        4.5507172969
 H         -5.3372239844        2.4996078668        4.7506240326
 H         -6.4199647130        1.0923529190        3.0299768875
 H         -6.9750295812       -0.4850953298        0.8212824741
 H         -6.8574525717       -1.7584994965       -1.2933422803
 H         -4.8118425773       -1.7649656449       -2.6412902727
 H         -2.8034209070       -0.5459834297       -1.9008646500
 H         -1.6929643791       -0.4596690350        2.8344281503
 H         -3.1890399636       -1.4269825529        4.5275760509
 H         -4.4350187671       -3.4890764399        4.0833375115
 H         -4.1811190405       -4.6802326437        1.9329237823
 H         -3.4418025406       -5.4788311084       -0.6031875327
 H         -2.4819899798       -5.6364003352       -2.8759230468
 H         -1.0193028470       -3.8712660932       -3.7403286202
 H         -0.4490819556       -1.9138604792       -2.3747520813
 H          1.6782459124       -0.3718222536       -2.8231988770
 H          3.1224013224       -1.3106031656       -4.5766095832
 H          4.2520425364       -3.4622103932       -4.2648077448
 H          3.9301913732       -4.7689367450       -2.1921861879
 H          3.1361662654       -5.6853645418        0.2829125010
 H          2.1485488324       -5.9453385812        2.5345355144
 H          0.7791932958       -4.1634487862        3.5111948848
 H          0.3295703224       -2.0902477062        2.2824199904
 H          1.9766297308        2.2950641324       -2.6307010055
 H          3.5637898158        2.9437489381       -4.4037233053
 H          5.8971328461        2.2096611232       -4.3382879972
 H          6.7231843923        0.7782351163       -2.4993473393
 H          6.9737660941       -0.7718588297       -0.2161441958
 H          6.5745151610       -2.0002118018        1.8904724134
 H          4.3871456370       -1.9260349790        2.9903483768
 H          2.5175062891       -0.6593515893        2.0056450835
 H          1.7869906167        5.5679701105       -1.4454161357
 H          1.8027489486        8.0192677061       -1.6009906977
 H          0.1102032527        9.3521062271       -0.3924937368
 H         -1.5958410742        8.2055210773        0.9769772491
 H         -1.6139353677        5.7531599603        1.1310915703
  106
       -174.52620369
 O          2.3430139070        3.7206538568       -0.4513671258
 C          1.2180893784        3.2912502636       -0.2159831217
 C          0.7471666111        1.9370983915       -0.0873141740
 C         -0.6727795134        1.9656582415        0.1043144084
 C         -1.4046918582        0.7760556687        0.1680500350
 N         -2.7964916654        0.7905353731        0.3075766243
 C         -3.5117301341        0.0993807893        1.2595099634
 C         -3.0587621127       -0.5327167742        2.4083773407
 C         -3.9922432507       -1.1786838154        3.1973042588
 C         -5.3443316773       -1.1727430623        2.8687084852
 C         -5.8072439677       -0.4928151609        1.7538771322
 C         -4.8893279046        0.1553999526        0.9449607092
 C         -4.9977631254        0.9466527450       -0.2526431282
 C         -6.0638838463        1.3336000951       -1.0475102692
 C         -5.8056760521        2.0902610592       -2.1780068908
 C         -4.5048163206        2.4478531778       -2.5217380437
 C         -3.4249577681        2.0674824344       -1.7475804837
 C         -3.6815336736        1.3267652470       -0.6026565460
 C         -0.7212507415       -0.4393872531        0.0836972217
 N         -1.4253779682       -1.6524400693        0.1573347031
 C         -1.2858999827       -2.6218790234        1.1308069592
 C         -0.3981215511       -2.6847638808        2.1944448975
 C         -0.4796424961       -3.7743469132        3.0399657839
 C         -1.4324541305       -4.7716303809        2.8493283617
 C         -2.3417823326       -4.6962481727        1.8108477702
 C         -2.2740726691       -3.6151145966        0.9451267172
 C         -3.0523262884       -3.2104334211       -0.1924202952
 C         -4.1461107370       -3.7548175066       -0.8477403752
 C         -4.6537439502       -3.0939053273       -1.9511163951
 C         -4.0640112179       -1.9228548287       -2.4204980582
 C         -2.9701108383       -1.3658243137       -1.7878463214
 C         -2.4894456641       -1.9975304879       -0.6491777942
 C          0.6981689352       -0.4675719398       -0.0651117724
 N          1.3555540602       -1.7065944350       -0.1396846369
 C          1.1861276648       -2.6659125889       -1.1182145531
 C          0.2962285662       -2.6953376496       -2.1815438926
 C          0.3467045688       -3.7799387323       -3.0357441856
 C          1.2707112157       -4.8053942061       -2.8530665184
 C          2.1807398838       -4.7651691616       -1.8132260911
 C          2.1440527485       -3.6895563244       -0.9389121131
 C          2.9340860429       -3.3156807425        0.2010825169
 C          4.0105068845       -3.8966837491        0.8537123528
 C          4.5381526282       -3.2571902343        1.9603848620
 C          3.9854443755       -2.0704576697        2.4353368130
 C          2.9095285432       -1.4766949491        1.8052272288
 C          2.4089691459       -2.0884104516        0.6642478580
 C          1.4298090228        0.7190103483       -0.1532075079
 N          2.8199244219        0.6752055072       -0.3046951049
 C          3.4938046736       -0.0412544598       -1.2679054955
 C          3.0011535242       -0.6422554506       -2.4171444743
 C          3.8961607309       -1.3242618299       -3.2200798815
 C          5.2499973955       -1.3840153291       -2.9041185627
 C          5.7543855118       -0.7354312174       -1.7886196016
 C          4.8752494178       -0.0513296783       -0.9661490235
 C          5.0309250209        0.7257627635        0.2355297086
 C          6.1208302010        1.0586605847        1.0224621862
 C          5.9079956135        1.8200667595        2.1592324842
 C          4.6283685292        2.2363048465        2.5164738108
 C          3.5251562715        1.9109075747        1.7502807966
 C          3.7368586175        1.1641547358        0.6001695280
 C         -1.0881145570        3.3384083853        0.2313596569
 O         -2.1944899259        3.8132202319        0.4672900086
 N          0.0807037170        4.0980715405        0.0067039489
 C          0.1083003297        5.4967282336        0.0029653769
 C         -0.6744530322        6.2170745230        0.9056852889
 C         -0.6475794064        7.5973955745        0.8921048830
 C          0.1605955325        8.2754676484       -0.0071127934
 C          0.9430574298        7.5608942670       -0.9008653427
 C          0.9180598832        6.1804831576       -0.9043369772
 H         -2.0173749968       -0.5138080897        2.6867410496
 H         -3.6644461374       -1.6951489359        4.0868512730
 H         -6.0441971354       -1.6923265465        3.5054382387
 H         -6.8607119423       -0.4665498151        1.5216106846
 H         -7.0727907652        1.0484978080       -0.7914646495
 H         -6.6235104972        2.4072093052       -2.8074852834
 H         -4.3368004491        3.0346014982       -3.4124594740
 H         -2.4196931152        2.3462716580       -2.0206054334
 H          0.3283716314       -1.9088701944        2.3731496268
 H          0.2075757468       -3.8500331333        3.8695839277
 H         -1.4655531513       -5.6075711722        3.5315873172
 H         -3.0931389764       -5.4592378834        1.6765536300
 H         -4.5888338744       -4.6766695105       -0.5029935533
 H         -5.5109434302       -3.4965059778       -2.4690947840
 H         -4.4681727151       -1.4400441696       -3.2976218487
 H         -2.5106451758       -0.4696090507       -2.1753243608
 H         -0.4074806152       -1.8973792803       -2.3539357055
 H         -0.3417837667       -3.8290021702       -3.8663053365
 H          1.2809844961       -5.6357805123       -3.5428433761
 H          2.9097346698       -5.5506238934       -1.6851568375
 H          4.4247617139       -4.8300890059        0.5046659379
 H          5.3823352345       -3.6888348161        2.4763797946
 H          4.4049059680       -1.6042466731        3.3142390586
 H          2.4784829623       -0.5678322524        2.1959848919
 H          1.9591675598       -0.5720530459       -2.6849209635
 H          3.5367265423       -1.8174008020       -4.1106356430
 H          5.9188520410       -1.9304129376       -3.5516487393
 H          6.8100423403       -0.7599212202       -1.5663164738
 H          7.1131620369        0.7288761797        0.7555434068
 H          6.7452819737        2.0951711448        2.7827590571
 H          4.4959667793        2.8258615761        3.4113327042
 H          2.5364509968        2.2358815098        2.0325242688
 H         -1.3108582504        5.6893129224        1.5956829499
 H         -1.2584152499        8.1483519205        1.5916816679
 H          0.1812483951        9.3550822980       -0.0107910089
 H          1.5753632369        8.0832954989       -1.6033271727
 H          1.5345060021        5.6240525637       -1.5899442325
