  106
       -174.52672745
 O          2.3270471854        3.7163000203       -0.5505656981
 C          1.2158621310        3.2920843559       -0.2450663141
 C          0.7465817235        1.9390319227       -0.1067178361
 C         -0.6697111840        1.9694642863        0.1073594778
 C         -1.4013265239        0.7800016105        0.1816362011
 N         -2.7913853820        0.7962193726        0.3343248832
 C         -3.5023978251        0.0965168546        1.2829914039
 C         -3.0441222330       -0.5521172960        2.4205307224
 C         -3.9748822615       -1.2029904115        3.2084356784
 C         -5.3294819538       -1.1865613413        2.8903670521
 C         -5.7972965498       -0.4907062716        1.7876315853
 C         -4.8820677409        0.1630750225        0.9800759083
 C         -4.9962542777        0.9700367962       -0.2064660600
 C         -6.0670502667        1.3724058325       -0.9873114498
 C         -5.8147682109        2.1423881441       -2.1101082555
 C         -4.5149462038        2.4971977635       -2.4604479347
 C         -3.4304771404        2.1012352330       -1.7003421322
 C         -3.6809546777        1.3481825186       -0.5620914326
 C         -0.7201414401       -0.4352817465        0.0835861603
 N         -1.4227722046       -1.6485947703        0.1616087399
 C         -1.2547766404       -2.6300671337        1.1178148917
 C         -0.3609711197       -2.6870837830        2.1768411016
 C         -0.4087043321       -3.7934353328        3.0027590142
 C         -1.3357527936       -4.8120559566        2.7983628810
 C         -2.2541171090       -4.7411840095        1.7674221319
 C         -2.2199593335       -3.6432875647        0.9210381977
 C         -3.0147830894       -3.2375415889       -0.2046978460
 C         -4.0981899496       -3.7976416935       -0.8640066790
 C         -4.6280586885       -3.1307896979       -1.9532891222
 C         -4.0704311333       -1.9371871250       -2.4049055330
 C         -2.9868257953       -1.3643737677       -1.7686448037
 C         -2.4837132195       -2.0038975224       -0.6440820949
 C          0.6978634472       -0.4652992085       -0.0833572428
 N          1.3496101507       -1.7065933605       -0.1623706301
 C          1.1411815649       -2.6800267874       -1.1189451209
 C          0.2450024617       -2.7003459686       -2.1772573906
 C          0.2465536606       -3.8078648076       -3.0031237249
 C          1.1313041810       -4.8635772182       -2.7996038604
 C          2.0535500785       -4.8297213881       -1.7702638750
 C          2.0654260767       -3.7310956750       -0.9241494169
 C          2.8791349174       -3.3569279143        0.1990428769
 C          3.9444026132       -3.9571969615        0.8525655935
 C          4.5051552925       -3.3103997322        1.9384327153
 C          3.9943681814       -2.0973189444        2.3935187002
 C          2.9291807290       -1.4846345800        1.7633588072
 C          2.3976046893       -2.1039198236        0.6405920835
 C          1.4286968805        0.7205217003       -0.1797599072
 N          2.8185665081        0.6826036019       -0.3286528929
 C          3.5063862172       -0.0392451956       -1.2775378794
 C          3.0274823685       -0.6722059770       -2.4154558429
 C          3.9369610669       -1.3518881539       -3.2038830702
 C          5.2915244223       -1.3785486876       -2.8861801209
 C          5.7813149309       -0.6994786646       -1.7824983621
 C          4.8874109076       -0.0180796151       -0.9738858710
 C          5.0274171103        0.7826043207        0.2141912234
 C          6.1100759961        1.1473406442        0.9972288512
 C          5.8821490213        1.9220212341        2.1220075184
 C          4.5944233702        2.3187192931        2.4720290680
 C          3.4983770232        1.9611786872        1.7095164516
 C          3.7251305799        1.2033652576        0.5694293157
 C         -1.0797265324        3.3423054179        0.2429259971
 O         -2.1714185564        3.8154847085        0.5466002879
 N          0.0852398289        4.1029135211       -0.0017052454
 C          0.1167826162        5.5003143337       -0.0027315491
 C         -1.0151272947        6.2318971032       -0.3648190509
 C         -0.9779280058        7.6119500955       -0.3586666024
 C          0.1808160144        8.2843270391       -0.0055928355
 C          1.3075321780        7.5600976743        0.3486365768
 C          1.2811534139        6.1798400398        0.3577592500
 H         -2.0008473121       -0.5416270819        2.6917017405
 H         -3.6431041418       -1.7317317255        4.0892716529
 H         -6.0269708271       -1.7103060296        3.5262752888
 H         -6.8523285704       -0.4558590513        1.5637202542
 H         -7.0750604466        1.0887846821       -0.7263792564
 H         -6.6361945143        2.4714009850       -2.7285495798
 H         -4.3512336192        3.0936652444       -3.3457074891
 H         -2.4258856887        2.3758004833       -1.9807278312
 H          0.3444445360       -1.8943052202        2.3662792906
 H          0.2848788381       -3.8657905773        3.8273382243
 H         -1.3419882397       -5.6614568228        3.4645374884
 H         -2.9863634749       -5.5209277779        1.6241485037
 H         -4.5157708546       -4.7362935465       -0.5334942927
 H         -5.4776044784       -3.5458845468       -2.4740372377
 H         -4.4915404526       -1.4493863067       -3.2712797745
 H         -2.5511961390       -0.4513168231       -2.1439189614
 H         -0.4273671204       -1.8792630718       -2.3662666983
 H         -0.4499171802       -3.8515871206       -3.8272587905
 H          1.1019738435       -5.7126898806       -3.4655764607
 H          2.7537612099       -5.6385142049       -1.6278889780
 H          4.3251188728       -4.9105302478        0.5195932925
 H          5.3422608621       -3.7563284435        2.4538292351
 H          4.4378059315       -1.6258116385        3.2577605270
 H          2.5292095237       -0.5566759149        2.1416799293
 H          1.9850366451       -0.6285726652       -2.6864811382
 H          3.5884216214       -1.8691124734       -4.0850944799
 H          5.9719708601       -1.9232487216       -3.5229218438
 H          6.8369220354       -0.6984060502       -1.5586785479
 H          7.1084840555        0.8312219905        0.7366768363
 H          6.7132644591        2.2216035518        2.7424936628
 H          4.4494015948        2.9169089912        3.3593336711
 H          2.5030539935        2.2680052692        1.9897091972
 H         -1.9171519450        5.7121744120       -0.6401461460
 H         -1.8602510134        8.1669780027       -0.6415047499
 H          0.2053935209        9.3635756624       -0.0057696741
 H          2.2138307654        8.0742390026        0.6322143339
 H          2.1573134490        5.6199676902        0.6373331396
