  76
  -115.596917163200       0.235569937721259      !
 N         10.4983320499       -1.0914887306        0.6920301214
 C          9.3810292780       -0.8667939309        0.5507365198
 C          8.0102379345       -0.5945064319        0.3771030807
 C          7.3213516770       -1.1168607972       -0.7236978688
 C          5.9807838459       -0.8570419163       -0.8838800068
 C          5.2821467359       -0.0538036756        0.0316261030
 C          3.8690054009        0.2284137996       -0.1496258369
 C          3.4034014864        1.5803238347       -0.1340299270
 C          4.2827405318        2.6642441779       -0.0428952931
 C          3.8177509050        3.9691876498        0.0826393759
 C          2.4601710960        4.2103385350        0.1335575492
 C          1.5646012477        3.1585301076       -0.0289842326
 C          2.0062207381        1.8484064280       -0.2396151506
 C          1.0952214830        0.7840175739       -0.5221518943
 C         -0.3143382454        1.0576482189       -0.7286365958
 C         -0.7379294925        2.0401485455       -1.6390659128
 C         -2.0751168338        2.2563523880       -1.8990627665
 C         -3.0247775237        1.4844172029       -1.2412864410
 C         -2.6141433130        0.5148517923       -0.3101351125
 C         -1.2856106234        0.3015725873       -0.0497774410
 C         -3.8073070934       -0.2484257386        0.2312133681
 C         -3.5938320864       -1.6937799618       -0.1774755008
 C         -4.0671833365       -2.1701539833       -1.3927311343
 C         -3.7802651886       -3.4615147861       -1.7999386267
 C         -3.0071215910       -4.2887175590       -1.0043507237
 C         -2.5260514770       -3.8183548973        0.2058299566
 C         -2.8162209810       -2.5302199643        0.6160530503
 C         -4.0311428676       -0.0828806612        1.7191379735
 C         -4.8229068822       -0.9936415023        2.4091978541
 C         -5.0886400840       -0.8145915456        3.7543591820
 C         -4.5709373006        0.2793454151        4.4268404445
 C         -3.7880401437        1.1936628623        3.7442115548
 C         -3.5229602291        1.0166161876        2.3975924810
 C         -4.9505319179        0.4346287771       -0.4941083831
 C         -6.3023444509        0.1893325750       -0.3942500492
 C         -7.1777391140        0.9624702941       -1.1462504176
 C         -6.7050090701        1.9655682608       -1.9799744830
 C         -5.3483313740        2.2211961538       -2.0824679382
 C         -4.4687486435        1.4522794438       -1.3346096952
 C          1.5722942387       -0.5626078909       -0.6102349177
 C          0.7400327550       -1.6232156209       -0.9844340128
 C          1.1808509600       -2.9419812631       -0.9517371486
 C          2.4689622423       -3.2252022036       -0.5470852009
 C          3.3440840797       -2.1838849703       -0.2559257950
 C          2.9453499734       -0.8459932490       -0.3439613349
 C          5.9893129921        0.4699885292        1.1256582622
 C          7.3255100882        0.1996172918        1.3042205899
 H          7.8532325650       -1.7201534364       -1.4451504974
 H          5.4593782253       -1.2399307729       -1.7491541612
 H          5.3473483163        2.4908240082       -0.0752702400
 H          4.5237257944        4.7822339753        0.1587410736
 H          2.0859356963        5.2124143629        0.2802822886
 H          0.5053962582        3.3602251232        0.0138117083
 H          0.0095173187        2.5953299928       -2.1871243859
 H         -2.3762342289        2.9999619223       -2.6219855655
 H         -0.9737159905       -0.4237248246        0.6867393738
 H         -4.6632325481       -1.5287070439       -2.0255773732
 H         -4.1595307072       -3.8198857667       -2.7458166644
 H         -2.7790553635       -5.2942313774       -1.3264158943
 H         -1.9173129331       -4.4543113258        0.8321466991
 H         -2.4377195689       -2.1723351657        1.5626851531
 H         -5.2250105835       -1.8532705323        1.8922340331
 H         -5.7034069770       -1.5314972480        4.2790011883
 H         -4.7787354272        0.4189931632        5.4773575458
 H         -3.3819497917        2.0510772825        4.2608383410
 H         -2.9151894741        1.7380251982        1.8708086456
 H         -6.6782291836       -0.5880330128        0.2540569953
 H         -8.2402341496        0.7807676157       -1.0796297525
 H         -7.4053546725        2.5544788038       -2.5541113475
 H         -4.9820200756        3.0037586706       -2.7301438048
 H         -0.2682321979       -1.4247063938       -1.3135613657
 H          0.5008401296       -3.7337367553       -1.2280294483
 H          2.8108159876       -4.2464015356       -0.4716913352
 H          4.3507452250       -2.4195076899        0.0535224134
 H          5.4584890076        1.0597314770        1.8588653330
 H          7.8539603716        0.5890782352        2.1622934806
  76
  -115.596481365100       0.148539147567083      !
 N         10.5435289040       -0.1265600751        1.1178806717
 C          9.4186551392       -0.0966576981        0.8880119326
 C          8.0391673462       -0.0584136121        0.6058704209
 C          7.5747938550        0.5767538428       -0.5517628932
 C          6.2279018926        0.6070914638       -0.8264923256
 C          5.2956299718        0.0266445853        0.0476822923
 C          3.8728305123        0.0819252782       -0.2456879468
 C          2.9633965757        0.6352019186        0.7100989243
 C          3.4178725052        1.1943551487        1.9095851813
 C          2.5468213470        1.7803310902        2.8216506682
 C          1.2051532162        1.8753214704        2.5189790513
 C          0.7343626777        1.3858329996        1.3053980296
 C          1.5736936549        0.7294346775        0.3983558104
 C          1.0932683790        0.2567882169       -0.8658798425
 C         -0.3153611131        0.3868886802       -1.1902828061
 C         -0.7272897703        1.0256378351       -2.3715530209
 C         -2.0613800551        1.2335759923       -2.6530663337
 C         -3.0186409474        0.7979190255       -1.7450276466
 C         -2.6197667461        0.1324868928       -0.5729752574
 C         -1.2940053602       -0.0785423991       -0.2956694657
 C         -3.8197484270       -0.1865260665        0.2975150190
 C         -4.0581603993       -1.6648867839        0.5173487843
 C         -3.5552481280       -2.6068045002       -0.3699732192
 C         -3.8303923065       -3.9517306520       -0.1953303036
 C         -4.6178874945       -4.3707022724        0.8626054426
 C         -5.1310080365       -3.4358259433        1.7455854201
 C         -4.8555729463       -2.0917686504        1.5730326872
 C         -3.6018484333        0.5757020802        1.5915788240
 C         -4.0618287383        1.8772168557        1.7408136600
 C         -3.7695182160        2.5978037301        2.8858611227
 C         -3.0040725168        2.0320234130        3.8902789524
 C         -2.5361760288        0.7369388343        3.7455835187
 C         -2.8318397167        0.0142703256        2.6044842897
 C         -4.9540338809        0.3560950827       -0.5499978593
 C         -6.3070830193        0.3367001206       -0.2923112369
 C         -7.1723438912        0.8865408588       -1.2296540031
 C         -6.6886230868        1.4420852594       -2.4053365279
 C         -5.3307813587        1.4604463953       -2.6741802667
 C         -4.4613365056        0.9131986521       -1.7420978011
 C          1.9992084919       -0.3277112206       -1.8053180286
 C          1.5406559936       -0.9209871260       -2.9861544247
 C          2.4110146050       -1.5305237326       -3.8832680493
 C          3.7561169229       -1.6075581750       -3.5885703166
 C          4.2323704865       -1.0755624006       -2.3952133572
 C          3.3891028492       -0.4106901221       -1.4986719174
 C          5.7762776957       -0.6033298571        1.2058812171
 C          7.1231619778       -0.6549831950        1.4795672945
 H          8.2823212635        1.0452079129       -1.2204962363
 H          5.8707136683        1.1189255389       -1.7084308702
 H          4.4737010288        1.1922761376        2.1310376981
 H          2.9329217527        2.1778599173        3.7481504952
 H          0.5147791240        2.3466783923        3.2022776106
 H         -0.3048815645        1.5402843028        1.0613960176
 H          0.0272110118        1.4108205392       -3.0422069785
 H         -2.3543437809        1.7512726260       -3.5543733946
 H         -0.9904538330       -0.6194239683        0.5881598011
 H         -2.9441798399       -2.2874795112       -1.2018524692
 H         -3.4290882223       -4.6742766820       -0.8909187583
 H         -4.8327961187       -5.4203878903        0.9978688824
 H         -5.7495000873       -3.7540538897        2.5722464553
 H         -5.2534177223       -1.3683454553        2.2703682374
 H         -4.6502815734        2.3322122534        0.9572761203
 H         -4.1375397225        3.6081560880        2.9893302686
 H         -2.7727346208        2.5972766908        4.7811493120
 H         -1.9352908687        0.2871361234        4.5226140104
 H         -2.4670547008       -0.9976971834        2.5026970221
 H         -6.6916574044       -0.0948086675        0.6197141372
 H         -8.2355982823        0.8808460064       -1.0404359633
 H         -7.3811705399        1.8640009499       -3.1189449545
 H         -4.9556687105        1.8912814858       -3.5905285151
 H          0.4833405447       -0.9253454869       -3.2009302288
 H          2.0233716409       -1.9586445346       -4.7954974397
 H          4.4404549019       -2.0967806574       -4.2650664678
 H          5.2758964194       -1.2011197060       -2.1510558011
 H          5.0747752871       -1.0895136772        1.8682599570
 H          7.4842849355       -1.1580529979        2.3649284990
  76
  -115.596469489900       0.146684242764905      !
 N         10.4077959313       -0.7929366823        1.3551693821
 C          9.3037637795       -0.6276926250        1.0858713351
 C          7.9496822156       -0.4282365985        0.7531675302
 C          7.6039788163        0.3031189728       -0.3887835821
 C          6.2804323782        0.4829726559       -0.7167730677
 C          5.2567766602       -0.0413921073        0.0871226846
 C          3.8571958877        0.1441847717       -0.2597842462
 C          2.9602022821        0.7244770178        0.6915852565
 C          3.4237822365        1.2440053612        1.9052528575
 C          2.5665056888        1.8537501593        2.8147914821
 C          1.2327398330        2.0063345455        2.4994742010
 C          0.7552503759        1.5522766133        1.2747555764
 C          1.5805039562        0.8807640570        0.3659122854
 C          1.0954584949        0.4460760551       -0.9095314150
 C         -0.3177353339        0.5741857809       -1.2146238894
 C         -0.7620560214        1.2233030810       -2.3779661074
 C         -2.1055215070        1.3767366025       -2.6516034774
 C         -3.0393515339        0.8749789777       -1.7535627371
 C         -2.6064037754        0.2204123199       -0.5872859106
 C         -1.2719245782        0.0666345807       -0.3162384001
 C         -3.7882437321       -0.1750781156        0.2759587462
 C         -3.9212857815       -1.6642357919        0.5106306258
 C         -4.6938773294       -2.1356811482        1.5659180287
 C         -4.8680834782       -3.4941919307        1.7562549216
 C         -4.2762392877       -4.3998697677        0.8922488687
 C         -3.5134067179       -3.9372389202       -0.1655262193
 C         -3.3404891742       -2.5778294400       -0.3586075093
 C         -3.6354465358        0.6106700651        1.5661610613
 C         -2.8263747258        0.1174805952        2.5841318492
 C         -2.5983535439        0.8642398790        3.7251949341
 C         -3.1743322250        2.1155960222        3.8651953802
 C         -3.9785375088        2.6138340970        2.8553516556
 C         -4.2029856907        1.8696106222        1.7100677988
 C         -4.9500259629        0.2868804385       -0.5816343064
 C         -6.3005969041        0.1615992537       -0.3413975134
 C         -7.1940978664        0.6543748015       -1.2839866667
 C         -6.7399489849        1.2599424806       -2.4466546298
 C         -5.3842827582        1.3849210480       -2.6978614941
 C         -4.4866628349        0.8936191375       -1.7613259631
 C          1.9952954163       -0.1240285839       -1.8640813957
 C          1.5352096070       -0.6515181715       -3.0751993517
 C          2.3979033968       -1.2456084970       -3.9900014551
 C          3.7353985323       -1.3793232055       -3.6828164022
 C          4.2104811628       -0.9211334864       -2.4586864657
 C          3.3780362622       -0.2685942525       -1.5430380582
 C          5.6192285273       -0.7594701591        1.2373888644
 C          6.9398650684       -0.9606120489        1.5629987096
 H          8.3843766403        0.7262081728       -1.0046562878
 H          6.0172700985        1.0705738191       -1.5844216726
 H          4.4757594807        1.1903931240        2.1392921223
 H          2.9571959642        2.2225890429        3.7512031396
 H          0.5550316428        2.4947284749        3.1835009602
 H         -0.2761133383        1.7442244803        1.0227782572
 H         -0.0283141151        1.6554890133       -3.0429979518
 H         -2.4242987911        1.8970642787       -3.5426371931
 H         -0.9414190912       -0.4698601927        0.5604858771
 H         -5.1514091955       -1.4347103370        2.2494988434
 H         -5.4680918190       -3.8467637018        2.5825909986
 H         -4.4105694012       -5.4608700289        1.0424056628
 H         -3.0507536057       -4.6369120665       -0.8462906806
 H         -2.7480551001       -2.2254142467       -1.1905572239
 H         -2.3784739455       -0.8609825146        2.4870513375
 H         -1.9659594484        0.4675927235        4.5061430506
 H         -2.9966008774        2.6993453312        4.7563822320
 H         -4.4312982066        3.5895781508        2.9550391590
 H         -4.8245949022        2.2723321450        0.9236007061
 H         -6.6616692502       -0.3093929410        0.5606620849
 H         -8.2560292715        0.5639757183       -1.1092164965
 H         -7.4540360693        1.6358255794       -3.1647706791
 H         -5.0326394031        1.8533274630       -3.6050729542
 H          0.4811888110       -0.6171848216       -3.3020240066
 H          2.0088530084       -1.6185285996       -4.9255959699
 H          4.4136565914       -1.8582399001       -4.3727694132
 H          5.2446819401       -1.0968992554       -2.2069733710
 H          4.8424829168       -1.1929364153        1.8505271313
 H          7.2083566019       -1.5333981677        2.4388530130
  76
  -115.596393706100       0.135380352366089      !
 N         10.5629420065       -0.8849257927        0.6875363166
 C          9.4342046458       -0.7171109142        0.5574444128
 C          8.0536697428       -0.4936985343        0.3923762309
 C          7.3520042523       -1.1367133169       -0.6339862747
 C          6.0033696331       -0.9190059578       -0.7889069071
 C          5.3072241852       -0.0409125422        0.0574265255
 C          3.8892229230        0.2099848911       -0.1253227764
 C          3.4121513514        1.5555075108       -0.2063945361
 C          4.2825891889        2.6504046002       -0.2284779493
 C          3.8085727257        3.9567290065       -0.1783606438
 C          2.4514505385        4.1883586142       -0.0841195184
 C          1.5625782010        3.1203507122       -0.1427189198
 C          2.0101996098        1.8036909920       -0.2914974329
 C          1.1038833267        0.7166022935       -0.4994326768
 C         -0.3024129978        0.9808237497       -0.7297699647
 C         -0.7035033792        1.9454962282       -1.6712249831
 C         -2.0335349551        2.1958395700       -1.9310691741
 C         -3.0020191159        1.4702012210       -1.2485657824
 C         -2.6163569812        0.4983438416       -0.3087893857
 C         -1.2931065816        0.2574156202       -0.0417979439
 C         -3.8315875870       -0.2323774057        0.2297246355
 C         -3.6796843205       -1.6647711684       -0.2538636752
 C         -4.1873009294       -2.0618292222       -1.4837564388
 C         -3.9623325575       -3.3434918187       -1.9551535889
 C         -3.2189998464       -4.2411044679       -1.2090725723
 C         -2.7034375784       -3.8496705571        0.0149032661
 C         -2.9295188367       -2.5702780233        0.4882830004
 C         -4.0270371138       -0.1414450052        1.7264359769
 C         -4.8667224290       -1.0442287569        2.3696050770
 C         -5.1071705909       -0.9356719591        3.7267588837
 C         -4.5123456580        0.0772125201        4.4598659977
 C         -3.6788494201        0.9813918284        3.8255244836
 C         -3.4414081410        0.8768065144        2.4659498990
 C         -4.9583483275        0.5145414660       -0.4580909984
 C         -6.3181913271        0.3418950943       -0.3224770314
 C         -7.1707668754        1.1581364060       -1.0552369599
 C         -6.6680960365        2.1295769411       -1.9086926287
 C         -5.3030215347        2.3120275528       -2.0478802007
 C         -4.4465468174        1.5019942739       -1.3166649735
 C          1.5933409386       -0.6285566527       -0.5028412909
 C          0.7714421393       -1.7196977886       -0.8050094684
 C          1.2235837895       -3.0287349668       -0.6778250581
 C          2.5118624810       -3.2719873415       -0.2473087200
 C          3.3789282992       -2.2058145498       -0.0341756044
 C          2.9702084499       -0.8814015918       -0.2230743974
 C          6.0264420361        0.5985963162        1.0806339996
 C          7.3713793316        0.3736296382        1.2536268398
 H          7.8814446524       -1.7974577290       -1.3050609051
 H          5.4735745095       -1.3932026736       -1.6022897744
 H          5.3467543512        2.4838005189       -0.2939017631
 H          4.5073994231        4.7793729430       -0.1922144788
 H          2.0717140994        5.1942333508        0.0139501728
 H          0.5039901681        3.3154261515       -0.0665452161
 H          0.0575343727        2.4628081012       -2.2372419727
 H         -2.3161545619        2.9306007751       -2.6702402814
 H         -1.0023302427       -0.4527371708        0.7178436705
 H         -4.7616640336       -1.3663917049       -2.0783021247
 H         -4.3671402304       -3.6388665466       -2.9121271236
 H         -3.0418755125       -5.2399854505       -1.5797676522
 H         -2.1198588702       -4.5419125397        0.6044175153
 H         -2.5251769825       -2.2749131932        1.4457165961
 H         -5.3247815690       -1.8442338876        1.8055269728
 H         -5.7606432753       -1.6449756603        4.2136603521
 H         -4.6985482275        0.1608166247        5.5203568113
 H         -3.2123165083        1.7753691052        4.3902829002
 H         -2.7962291688        1.5922246781        1.9768502932
 H         -6.7191698751       -0.4103184263        0.3401133384
 H         -8.2392723890        1.0348305908       -0.9581098396
 H         -7.3511093714        2.7517936664       -2.4683782585
 H         -4.9122839244        3.0708212462       -2.7094099617
 H         -0.2366598330       -1.5530621431       -1.1519952695
 H          0.5525071435       -3.8443735187       -0.9015186612
 H          2.8601312061       -4.2823379477       -0.0944527878
 H          4.3874368956       -2.4094197781        0.2917026612
 H          5.4986828178        1.2463190781        1.7654955173
 H          7.9094362110        0.8563239420        2.0565979198
  76
  -115.596243272100       0.115457183901164      !
 N         10.4407777283       -1.2612264016        0.6216312275
 C          9.3272223006       -1.0084161956        0.4985656364
 C          7.9627949525       -0.6975286292        0.3424053179
 C          7.2250341014       -1.2660513463       -0.7026920837
 C          5.8919438424       -0.9645355772       -0.8481204381
 C          5.2471064958       -0.0754091922        0.0277519219
 C          3.8416363625        0.2443530022       -0.1382927450
 C          3.4145956881        1.6090888036       -0.1754214144
 C          4.3252718707        2.6702997757       -0.1562205236
 C          3.8996963804        3.9915416560       -0.0706871175
 C          2.5512811616        4.2723855495        0.0164349495
 C          1.6230151869        3.2414416674       -0.0798462761
 C          2.0228897704        1.9130953220       -0.2581133270
 C          1.0784380642        0.8667850159       -0.4927387123
 C         -0.3301538152        1.1569538892       -0.6743018229
 C         -0.7695887735        2.1347260011       -1.5828049857
 C         -2.1104609282        2.3306106542       -1.8414895211
 C         -3.0485042402        1.5370141643       -1.1922720178
 C         -2.6224854439        0.5782907122       -0.2570661468
 C         -1.2919356077        0.3942510186        0.0119983473
 C         -3.7952145784       -0.2387781046        0.2488028332
 C         -3.4932557805       -1.6640432954       -0.1767902991
 C         -3.8611285771       -2.1242527923       -1.4341092222
 C         -3.4786835459       -3.3845443453       -1.8595755724
 C         -2.7173360356       -4.1973178849       -1.0380165640
 C         -2.3431934739       -3.7434774014        0.2154663340
 C         -2.7248127418       -2.4847310759        0.6416624584
 C         -4.0635738008       -0.1108407692        1.7322320090
 C         -4.8407382942       -1.0630705083        2.3820983952
 C         -5.1380628169       -0.9282349754        3.7256912158
 C         -4.6676611647        0.1629059375        4.4365859884
 C         -3.9021567393        1.1195946807        3.7934226567
 C         -3.6047866040        0.9863156920        2.4482747681
 C         -4.9468462383        0.4005281759       -0.5023365181
 C         -6.2876623372        0.0896848652       -0.4488859539
 C         -7.1755475337        0.8306820937       -1.2184457857
 C         -6.7260707033        1.8677586989       -2.0228342552
 C         -5.3803786713        2.1875064166       -2.0810539232
 C         -4.4878543730        1.4494298094       -1.3175798609
 C          1.5211357088       -0.4936255855       -0.5592534845
 C          0.6661892434       -1.5400408695       -0.9218753419
 C          1.0675994193       -2.8692185366       -0.8436971657
 C          2.3366097567       -3.1774991147       -0.3985537559
 C          3.2388239143       -2.1536111582       -0.1301915046
 C          2.8841071398       -0.8084810324       -0.2783624362
 C          6.0029401415        0.4911753109        1.0672116896
 C          7.3326183201        0.1823278860        1.2301514875
 H          7.7142793875       -1.9367880152       -1.3940472651
 H          5.3344395196       -1.3820877535       -1.6739382873
 H          5.3831229283        2.4656434439       -0.2159144185
 H          4.6291186004        4.7871372761       -0.0528175386
 H          2.2098228551        5.2893150903        0.1387629728
 H          0.5714441215        3.4732350274       -0.0107729463
 H         -0.0323545633        2.6953299385       -2.1389831656
 H         -2.4222118687        3.0673255366       -2.5670322444
 H         -0.9707806858       -0.3219118868        0.7535003749
 H         -4.4461512146       -1.4923831686       -2.0867260412
 H         -3.7716686482       -3.7290560377       -2.8405908591
 H         -2.4154030502       -5.1786964065       -1.3737318014
 H         -1.7461528256       -4.3683073762        0.8638792686
 H         -2.4275496145       -2.1395142458        1.6213779501
 H         -5.2041252125       -1.9214896316        1.8352915330
 H         -5.7396423849       -1.6777077974        4.2192357028
 H         -4.8985832728        0.2673454547        5.4864120878
 H         -3.5344578536        1.9757370889        4.3400573095
 H         -3.0098267505        1.7395300314        1.9521718121
 H         -6.6458789373       -0.7144788218        0.1762198861
 H         -8.2293482169        0.5961544020       -1.1895059206
 H         -7.4356695633        2.4306791592       -2.6114935688
 H         -5.0323536302        2.9946010170       -2.7084173210
 H         -0.3291960143       -1.3233502297       -1.2776301678
 H          0.3701257862       -3.6477625877       -1.1129614108
 H          2.6437145708       -4.2053823079       -0.2779334520
 H          4.2316950839       -2.4077526702        0.2078701059
 H          5.5140532431        1.1458844270        1.7738963139
 H          7.8985023193        0.6086102468        2.0458240985
  76
  -115.596020307200       9.119129583126560E-002 !
 N         10.6033767151       -0.7565575294        0.5681857164
 C          9.4724707738       -0.5884442787        0.4595834547
 C          8.0863855793       -0.3744724912        0.3320869288
 C          7.4029485700       -0.8503678116       -0.7932469157
 C          6.0486408037       -0.6485679381       -0.9124076175
 C          5.3287934890        0.0504846798        0.0700594686
 C          3.9014978146        0.2741954698       -0.0786894253
 C          3.3667282275        1.5960957798        0.0257177639
 C          4.1853994850        2.7145035251        0.2130098276
 C          3.6498469387        3.9828982931        0.4132828162
 C          2.2810739676        4.1529680232        0.4366135250
 C          1.4456655760        3.0707513578        0.1790079665
 C          1.9600815043        1.8000804383       -0.0969541557
 C          1.1090310153        0.7125865163       -0.4660899968
 C         -0.3005917488        0.9515683532       -0.7239935639
 C         -0.6975112344        1.9501511892       -1.6281357279
 C         -2.0256913489        2.1653782770       -1.9304649984
 C         -2.9925407710        1.3832619730       -1.3118302035
 C         -2.6093716196        0.3920317670       -0.3917188343
 C         -1.2879002513        0.1735970694       -0.0960369071
 C         -3.8285146157       -0.3138898740        0.1710441479
 C         -3.8828033266       -1.7869558843       -0.1822137546
 C         -3.2156381588       -2.2740065627       -1.2987221345
 C         -3.3065580504       -3.6103142540       -1.6454228960
 C         -4.0779299156       -4.4753305585       -0.8893081197
 C         -4.7639870015       -3.9930296339        0.2121177510
 C         -4.6695613356       -2.6583371692        0.5620023246
 C         -3.8475934633       -0.0663132833        1.6666959605
 C         -4.5270961403        1.0195246426        2.2027565568
 C         -4.4859109544        1.2715103572        3.5629256516
 C         -3.7581436269        0.4478441449        4.4035279345
 C         -3.0679061947       -0.6294423385        3.8745523379
 C         -3.1091627593       -0.8831170386        2.5158418791
 C         -4.9483332533        0.3843355601       -0.5756009621
 C         -6.3034957139        0.1444648428       -0.5131003828
 C         -7.1518820996        0.9060915452       -1.3063835998
 C         -6.6486066720        1.8861705940       -2.1498084266
 C         -5.2873641723        2.1265488068       -2.2246486112
 C         -4.4347241442        1.3687311554       -1.4354543718
 C          1.6491605727       -0.6041333761       -0.6025861605
 C          0.8702616537       -1.6861557632       -1.0260127664
 C          1.3773766374       -2.9807338917       -1.0612113696
 C          2.6799123974       -3.2182098363       -0.6738886092
 C          3.5002172824       -2.1502430629       -0.3246884923
 C          3.0331814918       -0.8320653005       -0.3407500500
 C          6.0291242118        0.5258198852        1.1897740190
 C          7.3807473180        0.3117642703        1.3266275255
 H          7.9509321856       -1.3688943231       -1.5666041798
 H          5.5295324150       -0.9942012305       -1.7945512226
 H          5.2580960161        2.5993272091        0.1952744914
 H          4.3109509693        4.8228441523        0.5642981023
 H          1.8516203215        5.1232764263        0.6354749536
 H          0.3765068826        3.2159115281        0.1998387550
 H          0.0664435025        2.5261750753       -2.1301473484
 H         -2.3066666007        2.9227002957       -2.6471308553
 H         -0.9970925954       -0.5611996146        0.6397537254
 H         -2.6241345338       -1.6034305101       -1.9053950028
 H         -2.7751555725       -3.9752460075       -2.5124477462
 H         -4.1490826790       -5.5184260400       -1.1597884728
 H         -5.3785367909       -4.6582404863        0.8010981902
 H         -5.2093025926       -2.2905884977        1.4230222072
 H         -5.0941974742        1.6719002203        1.5548069903
 H         -5.0248765481        2.1165975946        3.9659789299
 H         -3.7273716675        0.6447293260        5.4649064653
 H         -2.4942805697       -1.2762217185        4.5224061353
 H         -2.5753001238       -1.7322732166        2.1139978977
 H         -6.7014360301       -0.6181564712        0.1398027500
 H         -8.2170043072        0.7317218705       -1.2671550928
 H         -7.3283005892        2.4656450292       -2.7573612573
 H         -4.8969716598        2.8863931439       -2.8852245376
 H         -0.1484842695       -1.5194273830       -1.3379956893
 H          0.7394586601       -3.7931155949       -1.3754518791
 H          3.0737603928       -4.2230392695       -0.6534045627
 H          4.5183664112       -2.3502314512       -0.0277280372
 H          5.4835398207        1.0285411078        1.9751187155
 H          7.9056519337        0.6651497673        2.2022688882
  76
  -115.595706488100       6.542324996242785E-002 !
 N         10.6032617034       -0.3778992983        0.8795665947
 C          9.4738584244       -0.3066066569        0.6837722978
 C          8.0886676793       -0.2183510324        0.4437928439
 C          7.6134157905        0.3690396067       -0.7343092114
 C          6.2605153566        0.4442341197       -0.9682807261
 C          5.3343813042       -0.0417452711       -0.0324162132
 C          3.9057337727        0.0541699981       -0.2835055983
 C          3.0524536843        0.6966577420        0.6680644191
 C          3.5734372792        1.3231700563        1.8052909020
 C          2.7576684860        1.9903170215        2.7128945958
 C          1.4046265022        2.0907652512        2.4681181832
 C          0.8678695608        1.5311788022        1.3135752765
 C          1.6529726329        0.8072167575        0.4100701326
 C          1.1092749881        0.2813687451       -0.8049735341
 C         -0.3023415622        0.4481429615       -1.1056592585
 C         -0.7031077981        1.0435330797       -2.3130059862
 C         -2.0333874698        1.2496167299       -2.6116547724
 C         -2.9985867245        0.8482675301       -1.6968136195
 C         -2.6112216730        0.2431495961       -0.4884646698
 C         -1.2876718340        0.0386140486       -0.1914754956
 C         -3.8283125156       -0.1138887385        0.3436717534
 C         -3.8250583358       -1.6148860302        0.5534744550
 C         -3.0844719377       -2.1704387193        1.5910438197
 C         -3.0261493704       -3.5420448102        1.7568218787
 C         -3.7023957180       -4.3786444561        0.8851596520
 C         -4.4321629037       -3.8332532978       -0.1562475842
 C         -4.4892437254       -2.4607320701       -0.3248258761
 C         -3.9033286814        0.6615382595        1.6449275023
 C         -3.2536386008        1.8812970832        1.7833792568
 C         -3.3646463323        2.6087327315        2.9550690984
 C         -4.1384411742        2.1338984528        3.9993698403
 C         -4.8070829099        0.9296098370        3.8608039253
 C         -4.6930329276        0.1998511985        2.6915351181
 C         -4.9530741938        0.3762380741       -0.5472364387
 C         -6.3102745605        0.3487345835       -0.3122097837
 C         -7.1635875790        0.8743923850       -1.2738042916
 C         -6.6632307884        1.4228410116       -2.4459857387
 C         -5.3002747605        1.4626431556       -2.6847547207
 C         -4.4427500465        0.9385753501       -1.7285307616
 C          1.9594756411       -0.3882879964       -1.7404310832
 C          1.4353415788       -1.0364415436       -2.8636632894
 C          2.2498585711       -1.7259870625       -3.7555143601
 C          3.6030457989       -1.8277060501       -3.5102392941
 C          4.1436016003       -1.2406883562       -2.3712057465
 C          3.3576958598       -0.4975942153       -1.4839813050
 C          5.8259979823       -0.6211028978        1.1473967672
 C          7.1777180569       -0.7186789712        1.3810074498
 H          8.3174662951        0.7648904230       -1.4517758605
 H          5.8962435751        0.9197080612       -1.8674231137
 H          4.6382501720        1.3102189140        1.9785841676
 H          3.1942659117        2.4425357201        3.5905569335
 H          0.7584053920        2.6194577107        3.1526477812
 H         -0.1801895193        1.6795549012        1.1092398415
 H          0.0591094576        1.3850179886       -2.9985415613
 H         -2.3177681438        1.7270929343       -3.5375392468
 H         -0.9937389646       -0.4638474232        0.7179984132
 H         -2.5607303574       -1.5253730292        2.2819834487
 H         -2.4499888747       -3.9587958022        2.5701710208
 H         -3.6590142642       -5.4496928941        1.0164270729
 H         -4.9598014632       -4.4780570285       -0.8438105839
 H         -5.0572760932       -2.0456729476       -1.1445945538
 H         -2.6606592197        2.2700585590        0.9679950776
 H         -2.8471427828        3.5524379751        3.0492712149
 H         -4.2247711947        2.7013267112        4.9141527917
 H         -5.4215038001        0.5558569773        4.6669491728
 H         -5.2141441607       -0.7417542086        2.5948140289
 H         -6.7061856867       -0.0760330337        0.5982396978
 H         -8.2303977091        0.8556986184       -1.1066667517
 H         -7.3468104157        1.8255490645       -3.1790815163
 H         -4.9123876299        1.8941263492       -3.5954768509
 H          0.3702415290       -1.0212034331       -3.0352602001
 H          1.8120898995       -2.1956776522       -4.6234951676
 H          4.2443451960       -2.3775895961       -4.1823713571
 H          5.1924070409       -1.3834232025       -2.1619794245
 H          5.1264454836       -1.0320270283        1.8607444675
 H          7.5466215700       -1.1845156999        2.2833075670
  76
  -115.595651952400       6.175458988580644E-002 !
 N         10.5208020873       -0.5704421728        1.1122027843
 C          9.4026865790       -0.4587957775        0.8745315137
 C          8.0317813478       -0.3215661746        0.5831244804
 C          7.6207156076        0.1717061993       -0.6605699496
 C          6.2811400530        0.2955312898       -0.9439093629
 C          5.3039437150       -0.0476030160        0.0040363369
 C          3.8896064189        0.0951934759       -0.2921536914
 C          3.0493293376        0.8427736477        0.5933411539
 C          3.5795316768        1.5564962895        1.6728748216
 C          2.7723947764        2.3085321718        2.5207480215
 C          1.4188879891        2.3981183492        2.2743125967
 C          0.8739940709        1.7522693832        1.1700048406
 C          1.6536340791        0.9584183838        0.3217554498
 C          1.1065949042        0.3628201455       -0.8570677740
 C         -0.3111881255        0.5168847351       -1.1509060730
 C         -0.7335948322        1.1029185263       -2.3528350061
 C         -2.0710514699        1.3093547335       -2.6235378264
 C         -3.0167779916        0.9041550057       -1.6911081821
 C         -2.6058416042        0.2867611478       -0.4971933031
 C         -1.2752556785        0.0994740564       -0.2200698976
 C         -3.8071071660       -0.1123690290        0.3387060406
 C         -3.7996606589       -1.6272165844        0.4327696177
 C         -4.4918869893       -2.4046979742       -0.4861071783
 C         -4.4297308873       -3.7858982129       -0.4259012595
 C         -3.6678028875       -4.4084084511        0.5467837715
 C         -2.9636325230       -3.6397292207        1.4579594314
 C         -3.0263669635       -2.2596574493        1.3999606122
 C         -3.8522376268        0.5613315896        1.6946184568
 C         -4.5980908683        0.0107568205        2.7300765686
 C         -4.6764608811        0.6476965521        3.9552884088
 C         -4.0167721963        1.8472960829        4.1610863840
 C         -3.2898348740        2.4124288924        3.1279858538
 C         -3.2141230409        1.7774608077        1.9012473177
 C         -4.9471125984        0.4271006707       -0.5023260364
 C         -6.2969037390        0.4164083582       -0.2269718253
 C         -7.1687638460        0.9806291643       -1.1491873749
 C         -6.6935666245        1.5467695412       -2.3233296547
 C         -5.3377022966        1.5676011173       -2.6029659247
 C         -4.4615848316        1.0075620610       -1.6851883791
 C          1.9466794250       -0.3716702370       -1.7486343683
 C          1.4165798064       -1.0503701181       -2.8511755844
 C          2.2163900585       -1.8250001210       -3.6845992816
 C          3.5561334114       -1.9802232733       -3.3977649259
 C          4.1017460180       -1.3511296813       -2.2829703402
 C          3.3362884726       -0.5179387248       -1.4611883647
 C          5.7324453673       -0.5321974567        1.2504259426
 C          7.0694277414       -0.6774304875        1.5355180942
 H          8.3646444570        0.4578434277       -1.3898657460
 H          5.9690410460        0.7035164348       -1.8943476823
 H          4.6444090477        1.5459629623        1.8461897570
 H          3.2162255584        2.8306114108        3.3549078266
 H          0.7800381691        2.9858181618        2.9162382715
 H         -0.1745172504        1.8852101401        0.9571620189
 H          0.0147111465        1.4394963828       -3.0558901822
 H         -2.3743849356        1.7892443109       -3.5421533728
 H         -0.9583463466       -0.3886212314        0.6895598459
 H         -5.0865602239       -1.9302857646       -1.2530972514
 H         -4.9789629540       -4.3765566383       -1.1446808797
 H         -3.6204541299       -5.4862641079        0.5935354916
 H         -2.3618898087       -4.1165196984        2.2179386202
 H         -2.4797106957       -1.6689864683        2.1208897652
 H         -5.1121980775       -0.9276727993        2.5802177767
 H         -5.2551027911        0.2043396534        4.7526678968
 H         -4.0742803889        2.3415032753        5.1196110956
 H         -2.7817532555        3.3542792216        3.2751394440
 H         -2.6580001735        2.2345786673        1.0953784597
 H         -6.6717877603       -0.0215709659        0.6861480387
 H         -8.2299440873        0.9796499207       -0.9487608971
 H         -7.3910617891        1.9801334497       -3.0251520896
 H         -4.9698080367        2.0147785741       -3.5143723967
 H          0.3576775102       -0.9908962129       -3.0497874133
 H          1.7762957385       -2.3195724041       -4.5374841202
 H          4.1834457200       -2.6014948772       -4.0190886452
 H          5.1371725919       -1.5332077264       -2.0405094143
 H          4.9923387395       -0.8326072145        1.9778082068
 H          7.3875513993       -1.0697246536        2.4905572556
