  61
        -97.39411864
 C         -3.9936457103        3.9992310856        1.1828762819
 C         -2.9644047177        3.2188554335        1.7010882590
 C         -2.8271844252        1.8840248086        1.3546116710
 C         -3.7414378528        1.3501302169        0.4585814454
 C         -4.8113136543        2.1286262065       -0.0467761188
 C         -4.9304199696        3.4634355272        0.3166006776
 C         -5.5937379342        1.2566843921       -0.8771704290
 C         -6.7333201930        1.4412583571       -1.6482380600
 C         -7.2248587659        0.3674936836       -2.3696570345
 C         -6.5856721443       -0.8684997215       -2.3443194224
 C         -5.4463237527       -1.0758514113       -1.5832551346
 C         -4.9665922094       -0.0128281574       -0.8327722999
 N         -3.8481937484        0.0601530083       -0.0251089285
 C         -2.9701472447       -0.9854218101        0.2593974176
 C         -3.4851750285       -2.2423875549        0.6214136782
 C         -2.6083406300       -3.2864361724        0.9192440735
 C         -1.2552384630       -3.0643243470        0.8439687427
 S          0.0001733888       -4.2408947192        1.1723290528
 C          1.2561864894       -3.0634800963        0.8476493776
 C          2.6090288233       -3.2850654536        0.9271476547
 C          3.4862758697       -2.2405457604        0.6312634975
 C          2.9717589109       -0.9843816615        0.2668900248
 N          3.8502365140        0.0606508235       -0.0193225773
 C          3.7436915918        1.3518885890        0.4606865594
 C          2.8320223180        1.8873234509        1.3585218943
 C          2.9693766461        3.2231046849        1.7010029979
 C          3.9957269128        4.0030726328        1.1765876368
 C          4.9296452547        3.4659214271        0.3080454935
 C          4.8107191984        2.1300631130       -0.0511032253
 C          5.5910819613        1.2564743589       -0.8817859407
 C          6.7272675911        1.4398314497       -1.6581341400
 C          7.2178279011        0.3640440673       -2.3772108184
 C          6.5811434798       -0.8730679908       -2.3440722438
 C          5.4447930064       -1.0790893020       -1.5783410499
 C          4.9658653441       -0.0137116045       -0.8305052660
 C          1.6041011522       -0.7580583752        0.1852168767
 C          0.7056251409       -1.7991354309        0.4745419491
 C         -0.7041995303       -1.7994770522        0.4724818750
 C         -1.6023612192       -0.7589787792        0.1806711412
 H         -4.0672630876        5.0364704998        1.4739572719
 H         -2.2620710952        3.6588803814        2.3928390359
 H         -2.0424054107        1.2794374069        1.7822040110
 H         -5.7410168340        4.0651277753       -0.0654711088
 H         -7.2193251299        2.4042512718       -1.6858522231
 H         -8.1124163442        0.4904349522       -2.9723615863
 H         -6.9821009684       -1.6824203616       -2.9322947197
 H         -4.9438319295       -2.0304404288       -1.5875800386
 H         -4.5485920173       -2.3786243716        0.7231025017
 H         -2.9920198511       -4.2482782857        1.2217676958
 H          2.9924106769       -4.2464117502        1.2315744683
 H          4.5495003512       -2.3765129698        0.7356386481
 H          2.0489568373        1.2831033747        1.7900103715
 H          2.2686876646        3.6645872060        2.3936165446
 H          4.0694509771        5.0412353000        1.4646077427
 H          5.7377280571        4.0674857671       -0.0791666979
 H          7.2112977550        2.4035112465       -1.7017522983
 H          8.1032021734        0.4858929780       -2.9834887839
 H          6.9766787888       -1.6887356750       -2.9302715472
 H          4.9436043295       -2.0344286769       -1.5771638712
 H          1.2312445251        0.1967585075       -0.1504384233
 H         -1.2289796609        0.1956395126       -0.1549282716
