  61
  -96.9962608215000       0.228285910930421      !
 C         -3.9936457103        3.9992310856        1.1828762819
 C         -2.9644047177        3.2188554335        1.7010882590
 C         -2.8271844252        1.8840248086        1.3546116710
 C         -3.7414378528        1.3501302169        0.4585814454
 C         -4.8113136543        2.1286262065       -0.0467761188
 C         -4.9304199696        3.4634355272        0.3166006776
 C         -5.5937379342        1.2566843921       -0.8771704290
 C         -6.7333201930        1.4412583571       -1.6482380600
 C         -7.2248587659        0.3674936836       -2.3696570345
 C         -6.5856721443       -0.8684997215       -2.3443194224
 C         -5.4463237527       -1.0758514113       -1.5832551346
 C         -4.9665922094       -0.0128281574       -0.8327722999
 N         -3.8481937484        0.0601530083       -0.0251089285
 C         -2.9701472447       -0.9854218101        0.2593974176
 C         -3.4851750285       -2.2423875549        0.6214136782
 C         -2.6083406300       -3.2864361724        0.9192440735
 C         -1.2552384630       -3.0643243470        0.8439687427
 S          0.0001733888       -4.2408947192        1.1723290528
 C          1.2561864894       -3.0634800963        0.8476493776
 C          2.6090288233       -3.2850654536        0.9271476547
 C          3.4862758697       -2.2405457604        0.6312634975
 C          2.9717589109       -0.9843816615        0.2668900248
 N          3.8502365140        0.0606508235       -0.0193225773
 C          3.7436915918        1.3518885890        0.4606865594
 C          2.8320223180        1.8873234509        1.3585218943
 C          2.9693766461        3.2231046849        1.7010029979
 C          3.9957269128        4.0030726328        1.1765876368
 C          4.9296452547        3.4659214271        0.3080454935
 C          4.8107191984        2.1300631130       -0.0511032253
 C          5.5910819613        1.2564743589       -0.8817859407
 C          6.7272675911        1.4398314497       -1.6581341400
 C          7.2178279011        0.3640440673       -2.3772108184
 C          6.5811434798       -0.8730679908       -2.3440722438
 C          5.4447930064       -1.0790893020       -1.5783410499
 C          4.9658653441       -0.0137116045       -0.8305052660
 C          1.6041011522       -0.7580583752        0.1852168767
 C          0.7056251409       -1.7991354309        0.4745419491
 C         -0.7041995303       -1.7994770522        0.4724818750
 C         -1.6023612192       -0.7589787792        0.1806711412
 H         -4.0672630876        5.0364704998        1.4739572719
 H         -2.2620710952        3.6588803814        2.3928390359
 H         -2.0424054107        1.2794374069        1.7822040110
 H         -5.7410168340        4.0651277753       -0.0654711088
 H         -7.2193251299        2.4042512718       -1.6858522231
 H         -8.1124163442        0.4904349522       -2.9723615863
 H         -6.9821009684       -1.6824203616       -2.9322947197
 H         -4.9438319295       -2.0304404288       -1.5875800386
 H         -4.5485920173       -2.3786243716        0.7231025017
 H         -2.9920198511       -4.2482782857        1.2217676958
 H          2.9924106769       -4.2464117502        1.2315744683
 H          4.5495003512       -2.3765129698        0.7356386481
 H          2.0489568373        1.2831033747        1.7900103715
 H          2.2686876646        3.6645872060        2.3936165446
 H          4.0694509771        5.0412353000        1.4646077427
 H          5.7377280571        4.0674857671       -0.0791666979
 H          7.2112977550        2.4035112465       -1.7017522983
 H          8.1032021734        0.4858929780       -2.9834887839
 H          6.9766787888       -1.6887356750       -2.9302715472
 H          4.9436043295       -2.0344286769       -1.5771638712
 H          1.2312445251        0.1967585075       -0.1504384233
 H         -1.2289796609        0.1956395126       -0.1549282716
  61
  -96.9960636844000       0.185302453960611      !
 C         -3.8797979131        4.0577380680        0.9739643989
 C         -2.9017696168        3.2745400389        1.5796039660
 C         -2.8072722487        1.9153407212        1.3246436982
 C         -3.7099782715        1.3601374757        0.4298756644
 C         -4.7314868121        2.1430391321       -0.1615021695
 C         -4.8085499218        3.5024682346        0.1111253509
 C         -5.5149785117        1.2494979389       -0.9671761421
 C         -6.6133364204        1.4281826603       -1.7974231513
 C         -7.1147021760        0.3315444014       -2.4766240365
 C         -6.5262519522       -0.9229818279       -2.3498747794
 C         -5.4277496944       -1.1248805479       -1.5288196885
 C         -4.9376099434       -0.0365111429       -0.8234903935
 N         -3.8465363260        0.0473778708        0.0209714734
 C         -2.9765116409       -0.9926535351        0.3443485842
 C         -3.4921192061       -2.2428697990        0.7303844037
 C         -2.6157757028       -3.2873804219        1.0294847106
 C         -1.2622898582       -3.0721920739        0.9374913937
 S         -0.0042921651       -4.2552921964        1.2317297999
 C          1.2510419204       -3.0836241480        0.8754664475
 C          2.6041602137       -3.3157361058        0.8969208118
 C          3.4771101217       -2.2713561718        0.5832321019
 C          2.9572793382       -1.0025380793        0.2803962481
 N          3.8272494984        0.0531413628       -0.0006881574
 C          3.7581511024        1.3120639705        0.5612733554
 C          2.9134653263        1.7878201891        1.5534332209
 C          3.0802346210        3.0985392262        1.9696132149
 C          4.0691834483        3.9112627787        1.4229895561
 C          4.9332876828        3.4335085895        0.4532722057
 C          4.7841058359        2.1235242261        0.0186790032
 C          5.4939480909        1.3049918814       -0.9246787388
 C          6.5576055950        1.5404501139       -1.7846884290
 C          6.9822109938        0.5125963694       -2.6083604170
 C          6.3540913219       -0.7294073572       -2.5915456329
 C          5.2905123916       -0.9879784281       -1.7424905335
 C          4.8746397727        0.0311320393       -0.8988148428
 C          1.5902089634       -0.7654158386        0.2548736049
 C          0.6965694545       -1.8119991197        0.5380884659
 C         -0.7122491410       -1.8083421591        0.5602136824
 C         -1.6085766220       -0.7691381886        0.2631700319
 H         -3.9199394060        5.1143426237        1.1933660541
 H         -2.2053657234        3.7319865253        2.2659831916
 H         -2.0623726743        1.3101882082        1.8179111461
 H         -5.5792750086        4.1088990021       -0.3393288994
 H         -7.0583463335        2.4044662096       -1.9142097226
 H         -7.9685778612        0.4508130977       -3.1268642289
 H         -6.9271886231       -1.7558206796       -2.9075149560
 H         -4.9621486328       -2.0953335839       -1.4575086531
 H         -4.5549973544       -2.3749975374        0.8423172382
 H         -3.0005111033       -4.2460217244        1.3408241002
 H          2.9926823151       -4.2850624226        1.1675743586
 H          4.5430692744       -2.4190933565        0.6282400226
 H          2.1600104601        1.1553909370        1.9972602601
 H          2.4336920185        3.4944367772        2.7382692477
 H          4.1688548173        4.9281132262        1.7726071732
 H          5.7113994570        4.0608957714        0.0461628134
 H          7.0353173932        2.5078802431       -1.8132183478
 H          7.8077662547        0.6770010022       -3.2847680406
 H          6.6978467977       -1.5059518676       -3.2581026043
 H          4.7937491132       -1.9457654067       -1.7490380273
 H          1.2133108379        0.2045919814       -0.0290650315
 H         -1.2337745723        0.1785146830       -0.0899795438
  61
  -96.9958277751000       0.144365946640731      !
 C         -4.1708986981        4.0688470866        0.1983778293
 C         -3.1670513094        3.4239952165        0.9148887231
 C         -2.9743185081        2.0554485900        0.8138671123
 C         -3.8065397420        1.3457306243       -0.0390983763
 C         -4.8505161061        1.9896916767       -0.7472558306
 C         -5.0263902997        3.3616909263       -0.6281660729
 C         -5.5482984388        0.9624775843       -1.4685911186
 C         -6.6269635938        0.9737060862       -2.3422653230
 C         -7.0384806617       -0.2237960305       -2.9005989271
 C         -6.3792973318       -1.4151907892       -2.6126955310
 C         -5.2995275717       -1.4506277325       -1.7451499317
 C         -4.9007843697       -0.2586976460       -1.1584217689
 N         -3.8494389255       -0.0105673426       -0.2978051836
 C         -2.9815856583       -0.9645990387        0.2353730950
 C         -3.5106106381       -2.1459153723        0.7833870969
 C         -2.6487555708       -3.0965675520        1.3327318099
 C         -1.2966017004       -2.8588649380        1.3167860569
 S         -0.0588541736       -3.9312228621        1.9392970525
 C          1.2090962040       -2.8158507885        1.4741603868
 C          2.5549386557       -2.9987089236        1.6760640848
 C          3.4429303391       -2.0039993313        1.2646516892
 C          2.9471009360       -0.8434946428        0.6443866101
 N          3.8440861870        0.1414564854        0.2290422360
 C          4.8910330043        0.6477506076        0.9743250387
 C          5.2459833733        0.3857153791        2.2893156368
 C          6.3316581236        1.0679696064        2.8145466344
 C          7.0391270750        1.9965453662        2.0567567187
 C          6.6705701114        2.2861380153        0.7546266140
 C          5.5859907297        1.6146167907        0.2070768969
 C          4.9212181059        1.6818590932       -1.0640333979
 C          5.1463686782        2.4137305055       -2.2220788662
 C          4.3096546018        2.2112610639       -3.3056272167
 C          3.2759916486        1.2810325567       -3.2516409889
 C          3.0344979966        0.5366121778       -2.1078296303
 C          3.8483612825        0.7586892766       -1.0069388481
 C          1.5873434448       -0.6580137921        0.4355957362
 C          0.6764174306       -1.6464293079        0.8485837954
 C         -0.7303395867       -1.6692683085        0.7636455583
 C         -1.6146711822       -0.7221846067        0.2177687162
 H         -4.2901899049        5.1370360556        0.3021773273
 H         -2.5278547891        3.9994145319        1.5674611994
 H         -2.2102253901        1.5600205661        1.3927868731
 H         -5.8181873074        3.8612316297       -1.1651475312
 H         -7.1268910341        1.8993307481       -2.5834023827
 H         -7.8779035190       -0.2359152779       -3.5797986445
 H         -6.7123053809       -2.3309246300       -3.0775816898
 H         -4.7803405230       -2.3748276413       -1.5444821496
 H         -4.5773006526       -2.2874508271        0.8280060798
 H         -3.0443339261       -3.9978270629        1.7744064068
 H          2.9252497619       -3.9016240031        2.1360168121
 H          4.5054256381       -2.1443454661        1.3704328616
 H          4.6888603364       -0.3157648163        2.8905579254
 H          6.6305484520        0.8777917304        3.8343952852
 H          7.8819298954        2.5065119156        2.4992530329
 H          7.2080315303        3.0220676968        0.1763738034
 H          5.9609017674        3.1198242211       -2.2741476584
 H          4.4667522648        2.7735726277       -4.2141359828
 H          2.6522737866        1.1304026420       -4.1198314456
 H          2.2472890223       -0.2009515871       -2.0840387619
 H          1.2239275993        0.2622388071        0.0058825942
 H         -1.2265020003        0.1658810865       -0.2556686323
  61
  -96.9957410714000       0.131709924659185      !
 C         -3.8045335138        3.3864047298       -2.6753254116
 C         -2.7392399733        2.5007972857       -2.8059811634
 C         -2.6569603908        1.3528026918       -2.0336918119
 C         -3.6644499177        1.1200347822       -1.1092985989
 C         -4.7699965946        1.9981666089       -0.9958897163
 C         -4.8328636116        3.1406433798       -1.7823826002
 C         -5.6465279580        1.4265440796       -0.0128457020
 C         -6.8591346415        1.8262646434        0.5320955946
 C         -7.4385518323        1.0347047738        1.5082632014
 C         -6.8158024909       -0.1268880243        1.9547028174
 C         -5.6047461290       -0.5449905806        1.4262376338
 C         -5.0352799899        0.2250378822        0.4230246977
 N         -3.8378662067        0.0551875838       -0.2450157692
 C         -2.9605064959       -1.0194665370       -0.1023173617
 C         -3.4716447524       -2.3298831710       -0.0894606030
 C         -2.5957437541       -3.4102717657        0.0228703186
 C         -1.2475511176       -3.1690884014        0.1235345375
 S          0.0054905857       -4.3837522063        0.2689431870
 C          1.2574277325       -3.1576510444        0.3033400973
 C          2.6085877120       -3.3897049392        0.3767463133
 C          3.4844425182       -2.3025960370        0.3621120695
 C          2.9685171027       -0.9977533503        0.2900704620
 N          3.8493673727        0.0857390109        0.2778058925
 C          3.7431733374        1.2172138611        1.0616656507
 C          2.8283340523        1.5141889462        2.0611504549
 C          2.9691735905        2.7203074689        2.7281929293
 C          4.0000708681        3.6028483529        2.4189914401
 C          4.9336653108        3.2988825516        1.4437335034
 C          4.8121484296        2.0963959848        0.7608769455
 C          5.5909640928        1.4559969638       -0.2620726340
 C          6.7232878863        1.8269413231       -0.9740888840
 C          7.2096082227        0.9635808588       -1.9400388344
 C          6.5740225138       -0.2448375409       -2.2101080712
 C          5.4421410478       -0.6356788408       -1.5136570174
 C          4.9651475150        0.2127875438       -0.5255080650
 C          1.6026396090       -0.7596855862        0.2254461370
 C          0.7054035290       -1.8424976216        0.2223965219
 C         -0.7001028865       -1.8486432153        0.1172295010
 C         -1.5986036554       -0.7730431407        0.0092369087
 H         -3.8333765686        4.2718704672       -3.2928731864
 H         -1.9631402960        2.7068050408       -3.5275771815
 H         -1.8414851979        0.6582405195       -2.1628035936
 H         -5.6699757859        3.8167137317       -1.7002446388
 H         -7.3335865208        2.7378206546        0.2026032260
 H         -8.3845534161        1.3259193788        1.9400631409
 H         -7.2821796779       -0.7132518409        2.7319596228
 H         -5.1178999969       -1.4342121639        1.7950639927
 H         -4.5264707134       -2.4969894361       -0.2273617711
 H         -2.9749336982       -4.4202284217        0.0125900558
 H          2.9917088306       -4.3954598482        0.4512650741
 H          4.5462811013       -2.4563672563        0.4563180462
 H          2.0403673815        0.8245673254        2.3221323829
 H          2.2682533180        2.9763986533        3.5083163657
 H          4.0767804109        4.5344905260        2.9596788196
 H          5.7436807319        3.9763282468        1.2206230247
 H          7.2067601614        2.7723210476       -0.7806841059
 H          8.0905786378        1.2337678688       -2.5030707312
 H          6.9670371669       -0.8894786355       -2.9817367620
 H          4.9420379464       -1.5636461915       -1.7435454670
 H          1.2312236890        0.2479906931        0.1240655329
 H         -1.2317537057        0.2400752069        0.0574438999
  61
  -96.9957131837000       0.127879874616009      !
 C         -4.0682886341        4.0749068066        0.9491989901
 C         -3.0949687111        3.3296513077        1.6080340807
 C         -2.9419230619        1.9727953957        1.3689185827
 C         -3.7823538999        1.3815658695        0.4376516037
 C         -4.7964644019        2.1262907720       -0.2136844277
 C         -4.9325014129        3.4838592596        0.0439276562
 C         -5.5045712661        1.2027515095       -1.0547329640
 C         -6.5561882643        1.3391678429       -1.9511036880
 C         -6.9764082333        0.2227281759       -2.6531726106
 C         -6.3545169527       -1.0104160160       -2.4829712825
 C         -5.3029771941       -1.1706563467       -1.5941227207
 C         -4.8946245201       -0.0622613278       -0.8680182954
 N         -3.8565125456        0.0625768109        0.0357462561
 C         -2.9809868183       -0.9564414334        0.4089624362
 C         -3.4971885296       -2.2092925437        0.7864491696
 C         -2.6210655880       -3.2490583224        1.1002232387
 C         -1.2676630158       -3.0273483658        1.0245340479
 S         -0.0123488150       -4.2184243022        1.2930603586
 C          1.2428845661       -3.0512904130        0.9212080928
 C          2.5914801579       -3.3040545928        0.8802668088
 C          3.4651572768       -2.2668185066        0.5447274265
 C          2.9518699450       -0.9832605190        0.3030449057
 N          3.8302410247        0.0621130235        0.0028568797
 C          3.8621670093        1.2865794683        0.6364686215
 C          3.1185124010        1.7354302724        1.7179038230
 C          3.3827731514        3.0073531707        2.1982218725
 C          4.3664421543        3.8078690630        1.6242900849
 C          5.1251214461        3.3573463475        0.5579914369
 C          4.8780144373        2.0862298308        0.0581505081
 C          5.4694180473        1.2981251851       -0.9878676752
 C          6.4649325021        1.5403095043       -1.9240939566
 C          6.7695646047        0.5463483197       -2.8378566271
 C          6.0913880420       -0.6693530460       -2.8332476091
 C          5.0950954108       -0.9348509863       -1.9085959207
 C          4.7980452859        0.0508767680       -0.9792215436
 C          1.5902516467       -0.7221609546        0.3491209334
 C          0.6918663820       -1.7669976558        0.6288648560
 C         -0.7167154575       -1.7573773644        0.6666467529
 C         -1.6140654187       -0.7187728060        0.3667770573
 H         -4.1564319952        5.1303109598        1.1596047883
 H         -2.4487999744        3.8155249389        2.3233189825
 H         -2.1999422484        1.3963367613        1.8996471725
 H         -5.7002927384        4.0608303375       -0.4484022194
 H         -7.0269497602        2.2986054018       -2.1014213244
 H         -7.7926997984        0.3094033980       -3.3548425345
 H         -6.6924365533       -1.8592594328       -3.0581114667
 H         -4.8098593847       -2.1240464142       -1.4855639469
 H         -4.5618811493       -2.3479192170        0.8708025196
 H         -3.0051679683       -4.2116331082        1.3999128293
 H          2.9759212808       -4.2849573925        1.1121136700
 H          4.5293312085       -2.4325714114        0.5239321092
 H          2.3688326445        1.1098750554        2.1778038540
 H          2.8185605967        3.3822224884        3.0389109508
 H          4.5448379268        4.7939094572        2.0269811999
 H          5.8980439464        3.9753060727        0.1271899129
 H          6.9816996246        2.4877312857       -1.9424167616
 H          7.5396613609        0.7175232629       -3.5752796421
 H          6.3428403378       -1.4190420784       -3.5683793731
 H          4.5588404295       -1.8712446855       -1.9188164462
 H          1.2192864831        0.2643770592        0.1189132487
 H         -1.2393089683        0.2339624560        0.0272275787
  61
  -96.9952014425000       7.440844516609874E-002 !
 C         -3.9781261387        4.1487956696       -0.2226334578
 C         -2.9770454790        3.5444433912        0.5319089040
 C         -2.8490278548        2.1656161708        0.5889330577
 C         -3.7422301541        1.4005261599       -0.1465785248
 C         -4.7873690288        2.0078806236       -0.8851804730
 C         -4.8978443066        3.3912169281       -0.9258583177
 C         -5.5574933357        0.9401316639       -1.4577993906
 C         -6.6749988998        0.9056908981       -2.2809746873
 C         -7.1606093577       -0.3249785800       -2.6859867892
 C         -6.5331885455       -1.5059456831       -2.3010389313
 C         -5.4152284060       -1.4955200004       -1.4825018120
 C         -4.9459142842       -0.2673218398       -1.0405134096
 N         -3.8500193245        0.0265627547       -0.2498170729
 C         -2.9858244102       -0.9093585230        0.3171289575
 C         -3.5223266560       -2.0473671142        0.9467201580
 C         -2.6654795271       -3.0208009536        1.4608111726
 C         -1.3086733213       -2.8369196969        1.3562532538
 S         -0.0756143316       -3.9635218719        1.8828573161
 C          1.2014046438       -2.8857632319        1.3561824601
 C          2.5496331629       -3.1200390624        1.4682968871
 C          3.4446621612       -2.1336513236        1.0521249328
 C          2.9538428953       -0.9194906587        0.5404303223
 N          3.8558532243        0.0851998834        0.1892906694
 C          4.9281916542        0.5029981348        0.9552778799
 C          5.3334913308        0.0830536389        2.2135671367
 C          6.4362244626        0.7023348184        2.7793132190
 C          7.1119732064        1.7238305258        2.1187668756
 C          6.6923856755        2.1714975884        0.8785111329
 C          5.5906526835        1.5643510712        0.2914660361
 C          4.8772636288        1.7880740754       -0.9344826696
 C          5.0514773271        2.6698175977       -1.9924031722
 C          4.1725097320        2.6045819926       -3.0590821194
 C          3.1484753077        1.6625607431       -3.0895756678
 C          2.9575977795        0.7702488015       -2.0467406505
 C          3.8116730644        0.8549880924       -0.9568891626
 C          1.5912392127       -0.6928431416        0.3984195094
 C          0.6744510635       -1.6827403813        0.7938198309
 C         -0.7349693426       -1.6660383735        0.7708983245
 C         -1.6139930285       -0.7095381775        0.2339730704
 H         -4.0426766692        5.2264333628       -0.2475005733
 H         -2.2878765367        4.1610322211        1.0888745088
 H         -2.0867786094        1.7074888514        1.1999051829
 H         -5.6864511615        3.8608663529       -1.4935460333
 H         -7.1485635608        1.8216553641       -2.5995977664
 H         -8.0318294399       -0.3732238148       -3.3221317722
 H         -6.9202749451       -2.4508067589       -2.6515100507
 H         -4.9206759901       -2.4154618365       -1.2129810503
 H         -4.5881734785       -2.1428451715        1.0665158663
 H         -3.0666016958       -3.9010451409        1.9385075038
 H          2.9157086850       -4.0528814802        1.8678519415
 H          4.5060335221       -2.3129031522        1.0852592444
 H          4.8015712522       -0.6901984321        2.7453684127
 H          6.7735858537        0.3874116798        3.7552603569
 H          7.9694606341        2.1806801784        2.5899858335
 H          7.2039547237        2.9793066062        0.3779506269
 H          5.8582165434        3.3866451758       -1.9806329956
 H          4.2878242794        3.2860141976       -3.8888215683
 H          2.4915122618        1.6215555374       -3.9452811911
 H          2.1773251781        0.0263313211       -2.0918668061
 H          1.2313560898        0.2626773452        0.0508008094
 H         -1.2191117308        0.1417853975       -0.2976199539
  61
  -96.9951480497000       7.032092870738746E-002 !
 C         -3.9125064455        2.9064557856       -3.1887078575
 C         -2.8410566121        2.0186941847       -3.1901138561
 C         -2.7210018036        1.0324169523       -2.2233385497
 C         -3.6976018547        0.9664537290       -1.2410266612
 C         -4.8061220994        1.8480243525       -1.2487846858
 C         -4.9071764956        2.8260421850       -2.2294330147
 C         -5.6457521024        1.4575148058       -0.1513865820
 C         -6.8403897428        1.9470418756        0.3588342878
 C         -7.3820022589        1.3353426728        1.4761296643
 C         -6.7415665272        0.2641472728        2.0920099363
 C         -5.5478227341       -0.2413369593        1.6011005107
 C         -5.0146686756        0.3483756979        0.4648269915
 N         -3.8374998634        0.0681622452       -0.1993230721
 C         -2.9648922075       -0.9885545586        0.0609889375
 C         -3.4837331661       -2.2851158079        0.2354086687
 C         -2.6074218365       -3.3619240116        0.3746342124
 C         -1.2540354053       -3.1273443578        0.3719875009
 S          0.0011478903       -4.3437120623        0.4747745287
 C          1.2585839957       -3.1248531762        0.3683861113
 C          2.6097212605       -3.3635531130        0.3347302028
 C          3.4872732070       -2.2796151158        0.2480114669
 C          2.9720641757       -0.9740313787        0.2480319272
 N          3.8547395137        0.1109995251        0.2412967124
 C          3.8340647660        1.1557977854        1.1416521591
 C          3.0104883273        1.3522088988        2.2405682655
 C          3.2325863378        2.4752952324        3.0199001446
 C          4.2520530644        3.3745315267        2.7199881096
 C          5.0905081526        3.1719683483        1.6375458646
 C          4.8875195454        2.0532671669        0.8413162128
 C          5.5612379704        1.5180943313       -0.3096355504
 C          6.6275000882        1.9537011998       -1.0836771978
 C          7.0089141616        1.1905322300       -2.1734584189
 C          6.3375251842        0.0157014646       -2.5006707711
 C          5.2716956658       -0.4401338300       -1.7430416428
 C          4.8967457616        0.3110131135       -0.6388017104
 C          1.6069612919       -0.7291060522        0.2702807693
 C          0.7065361498       -1.8095177134        0.2995857164
 C         -0.7019036886       -1.8123180671        0.2634558579
 C         -1.5994503152       -0.7436035435        0.0971577563
 H         -3.9733294740        3.6608283145       -3.9590393414
 H         -2.0910157964        2.0922727577       -3.9631143546
 H         -1.9017571845        0.3306575424       -2.2489587572
 H         -5.7486907148        3.5015798488       -2.2448857162
 H         -7.3305404919        2.7887894235       -0.1059446958
 H         -8.3125020008        1.6998565653        1.8853200271
 H         -7.1799806607       -0.1799707396        2.9728212124
 H         -5.0466852376       -1.0593665445        2.0947812125
 H         -4.5463940319       -2.4506683821        0.1799489734
 H         -2.9913755514       -4.3666357035        0.4582520075
 H          2.9933155435       -4.3706164915        0.3847102042
 H          4.5528542894       -2.4373909208        0.2449102948
 H          2.2318658196        0.6470069405        2.4880577607
 H          2.6056993316        2.6526786173        3.8808767379
 H          4.3947833999        4.2390738961        3.3512525536
 H          5.8910619070        3.8622773249        1.4195846797
 H          7.1407152451        2.8721322511       -0.8426352723
 H          7.8360539304        1.5138083216       -2.7878474310
 H          6.6507853877       -0.5497550415       -3.3653748116
 H          4.7431894675       -1.3426185785       -2.0090278966
 H          1.2365495812        0.2833622968        0.2285944524
 H         -1.2266261298        0.2657107961        0.0204346861
  61
  -96.9945595888000       3.772651531955765E-002 !
 C         -6.6378199043        0.0169450722       -3.4682799972
 C         -5.8569647613       -1.1317452660       -3.3761440981
 C         -4.8937763712       -1.2706083073       -2.3901983612
 C         -4.7366834286       -0.2265577755       -1.4908499936
 C         -5.5134736037        0.9544157059       -1.5881557468
 C         -6.4731249791        1.0693559220       -2.5841343572
 C         -5.0582229559        1.8283748677       -0.5424214924
 C         -5.4538285680        3.0835283592       -0.1006977986
 C         -4.8096913110        3.6328526405        0.9946179186
 C         -3.7933056932        2.9463523717        1.6524885375
 C         -3.3812320890        1.6927104309        1.2307425448
 C         -4.0110597642        1.1453623452        0.1229944003
 N         -3.8308713184       -0.0917109238       -0.4612396933
 C         -2.9306825972       -1.0634256652       -0.0123380377
 C         -3.4111236901       -2.3447219352        0.3064582865
 C         -2.5447867618       -3.2762804201        0.8828944895
 C         -1.2271830116       -2.9366988293        1.0647953419
 S          0.0011444043       -3.9443742570        1.8057326508
 C          1.2317335211       -2.7248440689        1.5373581796
 C          2.5514811938       -2.8186745064        1.9032273359
 C          3.4212416752       -1.7754701047        1.5771906593
 C          2.9403188174       -0.6877459492        0.8293508235
 N          3.8402763499        0.2837352971        0.3798385527
 C          4.7602697588        0.9709732320        1.1413787872
 C          4.9481561977        0.9580840863        2.5154265868
 C          5.9210982935        1.7930559126        3.0402593921
 C          6.6818194288        2.6225803845        2.2211840510
 C          6.4872416426        2.6516871522        0.8509307509
 C          5.5178909696        1.8244459049        0.3013603541
 C          5.0358907563        1.6130437543       -1.0356199309
 C          5.4047134091        2.1092160227       -2.2786638689
 C          4.7400102269        1.6442993763       -3.4004265527
 C          3.7298425659        0.6923597896       -3.2971020183
 C          3.3440140622        0.1826198217       -2.0680486455
 C          3.9935897069        0.6592662468       -0.9391412388
 C          1.6016290004       -0.5732670487        0.4865855145
 C          0.6970845857       -1.5814714317        0.8661878692
 C         -0.6922274268       -1.6760621964        0.6544451642
 C         -1.5949366604       -0.7259040505        0.1427931368
 H         -7.3793054663        0.0889773452       -4.2500702209
 H         -6.0016576810       -1.9290640455       -4.0894462848
 H         -4.2793436265       -2.1556624620       -2.3290576588
 H         -7.0712293100        1.9637487733       -2.6692435551
 H         -6.2541822503        3.6122764835       -0.5953827476
 H         -5.1063746631        4.6068106984        1.3545962002
 H         -3.3208985932        3.3952735736        2.5131907488
 H         -2.6066562745        1.1546014886        1.7553656719
 H         -4.4558016924       -2.5738883386        0.1780335545
 H         -2.9137751350       -4.2405028903        1.1957180662
 H          2.9200314659       -3.6925927445        2.4172306261
 H          4.4678606480       -1.8372054646        1.8242717877
 H          4.3496925484        0.3265799568        3.1538856346
 H          6.0896804793        1.8028600680        4.1065258578
 H          7.4314897515        3.2596154788        2.6665516220
 H          7.0693528692        3.3075720008        0.2217006960
 H          6.2002580378        2.8332700098       -2.3662527254
 H          5.0152420199        2.0165569748       -4.3760947524
 H          3.2415121705        0.3378105551       -4.1922672569
 H          2.5740829464       -0.5699891796       -1.9934734647
 H          1.2518207680        0.2927728616       -0.0535061912
 H         -1.2447423250        0.2525490906       -0.1472371750
