73
 energy: -105.293099866625 gnorm: 0.000094885425 xtb: 6.7.1 (edcfbbe)
C           -1.54653338857041        5.00446650995891       -0.12682339271876
C           -0.83124255933030        3.68756173176796       -0.11527423914118
C            0.55744145663171        3.62585191331463       -0.14002293226268
C            1.21747604767077        2.41619040418520       -0.10664690935764
C            0.51058081144880        1.21141317903970       -0.04241712478240
C           -0.88455889837008        1.26342906614164       -0.03360272366023
C           -1.52877942931337        2.49090522127614       -0.06560749361385
C           -1.74021988183646        0.00851914545606       -0.00118256314106
C           -2.58438985142822       -0.01110761649694       -1.25218297933720
C           -1.93896106168332       -0.00853808479132       -2.48486736551255
C           -2.65578447317273       -0.03115556487065       -3.66485559772165
C           -4.04439003498298       -0.05829119472061       -3.63700695096420
C           -4.69674104137053       -0.06057078831747       -2.42435679401834
C           -3.97960549388124       -0.03652406916908       -1.22359388524838
C           -4.73451202915205       -0.03640608483635        0.04086320592186
O           -5.96166494522995       -0.06578401672531        0.05820682917944
C           -3.94501993923568        0.00325660983395        1.28335239811910
C           -4.62902148798346        0.01729339765164        2.50346538358572
C           -3.94381963424150        0.05463723765764        3.69725588563862
C           -2.55493593071902        0.07756602906338        3.68629859128641
C           -1.87068055169872        0.06275539249360        2.48703431456924
C           -2.54952511028662        0.02672798101890        1.27294366807925
C           -0.89077745355168       -1.25188004931353        0.00967906266422
C           -1.54096737960573       -2.47665698372375        0.02728628783967
C           -0.84949615213457       -3.67705855170848        0.06198983787618
C           -1.56944490937526       -4.99149906715915        0.06026266271862
C            0.53967913794406       -3.62240052051220        0.08816028791906
C            1.20542825129282       -2.41576673064154        0.06942921938949
C            0.50451815829702       -1.20668924393978        0.01905477016728
N            1.18387815228868        0.00076216855872       -0.00538465043120
C            2.60856732327623       -0.00104668049260        0.00562354660199
C            3.32105991604545       -0.26076595246931       -1.15782180260269
C            4.70202114183681       -0.25997583699326       -1.13713180724855
C            5.41558059167870        0.00383553206111        0.03091993281787
C            6.93632726333665       -0.00539870714896       -0.00233316423168
C            7.55894200244651        0.33138203678655        1.35604082251571
C            7.42316731101589        1.03529612017778       -1.02198123298947
C            7.41636345039788       -1.40432396672823       -0.41731074639331
C            4.68581465029405        0.26277312922722        1.18562593075918
C            3.30143929900632        0.25865459490823        1.17828275399227
H           -1.05719686297213        5.70323040286752       -0.80263500498492
H           -1.54032618562229        5.44363316600560        0.87177288479834
H           -2.58173241689029        4.87990062944422       -0.43593940926707
H            1.13229487056395        4.53953235614632       -0.18864398263789
H            2.29607138689039        2.39796685245583       -0.13445058531555
H           -2.61046095302708        2.50473535426513       -0.05396177020352
H           -0.85928038542682        0.01261762843970       -2.51047181000304
H           -2.13446947416336       -0.02804051126104       -4.61074579914179
H           -4.60799940773282       -0.07680191210596       -4.55774764018551
H           -5.77584482646327       -0.08050988265900       -2.36642678946211
H           -5.70933463929258       -0.00185939050944        2.47562914029691
H           -4.48206715885598        0.06566274555447        4.63315800171030
H           -2.00783744004082        0.10624839866523        4.61706740246088
H           -0.79073078978777        0.07879878168367        2.48306253196560
H           -2.62271330770382       -2.48516400430211        0.01698099645053
H           -1.49898163534248       -5.45756737045189       -0.92338649107719
H           -1.12778937572257       -5.67323426438693        0.78500211846542
H           -2.62177271130000       -4.85670883906086        0.29898752776452
H            1.10974557091703       -4.53957904394733        0.12594143649437
H            2.28407274006714       -2.40315738676361        0.09746985310712
H            2.78817203212967       -0.46711414363854       -2.07479524265942
H            5.22718750287809       -0.46787304069026       -2.05669679490204
H            7.26318311510831        1.32437864893932        1.68725713504220
H            7.27387142757077       -0.39783397129123        2.11100565116825
H            8.64358080108707        0.31619865310844        1.26972613377817
H            7.07693364471976        0.80319183138918       -2.02527369391771
H            8.51067006863290        1.06220285961731       -1.03627155288006
H            7.05743240767037        2.02492259168702       -0.75475054989327
H            8.50365169908144       -1.43494813091675       -0.43776990619202
H            7.04981949552407       -1.67339785752450       -1.40418264178264
H            7.06385414464345       -2.15002115866121        0.29281863394535
H            5.18597010150514        0.47172554849653        2.11670890278187
H            2.75349203574162        0.46379246796336        2.08662293257310
