73
 energy: -105.217524931650 gnorm: 0.000058980614 xtb: 6.7.1 (edcfbbe)
C           -1.51773496876683        4.99460093238921       -0.09889569040055
C           -0.81876670510955        3.67463302437156       -0.08251135102765
C            0.57786006234583        3.61340723042124       -0.10931320387027
C            1.23581545472749        2.40847025865149       -0.08281245726718
C            0.51866103299940        1.20239332184861       -0.02426384943136
C           -0.88471720711515        1.25117534718328       -0.01593554569634
C           -1.52315758180055        2.48235264068291       -0.04045980114237
C           -1.72660501659552        0.00268460392053        0.00519122190754
C           -2.57917025676744       -0.01390846930872       -1.25732221410451
C           -1.92205056223969       -0.02770226119124       -2.47454858900706
C           -2.62246648410900       -0.04608174603825       -3.67127839080515
C           -4.01318724157830       -0.05045061071289       -3.64763775949907
C           -4.68191929423693       -0.03559857755251       -2.44941994452039
C           -3.98128436985068       -0.01631873006157       -1.22416072472514
C           -4.73870065562496        0.00093504546210        0.00405719346224
O           -6.01231323237023       -0.00112198304120        0.00358315733204
C           -3.98221227420366        0.02120260788933        1.23279019056923
C           -4.68380153233288        0.04072806172257        2.45750222481657
C           -4.01600257058654        0.05945308672105        3.65618166780814
C           -2.62529042942470        0.05898025826122        3.68086821016275
C           -1.92393695471779        0.03989671691183        2.48470265644108
C           -2.58013241918077        0.02207712224287        1.26703671560711
C           -0.88989660980280       -1.24936961518748        0.02720065787723
C           -1.53333732920939       -2.47799937503647        0.04771735968586
C           -0.83391365774746       -3.67318492766439        0.08988947592938
C           -1.53848614257561       -4.99022242587991        0.10192789534821
C            0.56288293136904       -3.61773933869276        0.12099098537958
C            1.22578322491888       -2.41541752887561        0.09895584394755
C            0.51363574423338       -1.20637144210720        0.04056487889817
N            1.18324447916236       -0.00337387660583        0.01040926436244
C            2.61014095846286       -0.00555218460727        0.01374179248079
C            3.31096143068447       -0.26025298980950       -1.15787916337091
C            4.69181963256770       -0.25581321774116       -1.14562217798077
C            5.41289127345254       -0.00047068476360        0.02014512511161
C            6.93241369127469       -0.00310234774919       -0.02453652485882
C            7.56352254918537        0.30344042704037        1.33693869359879
C            7.40294231535524        1.06547944282198       -1.02296127127651
C            7.41603112239468       -1.38884045995063       -0.47778769795206
C            4.69109768276811        0.24926890662209        1.18237405128746
C            3.30680866644655        0.24836377641472        1.18545222711745
H           -1.16284893863713        5.60314359078689       -0.92942621217562
H           -1.30989667565935        5.53909530130041        0.82237024552751
H           -2.59290569516454        4.86475730160087       -0.18958526932690
H            1.14740444269189        4.52961521762570       -0.15359690359556
H            2.31361853109245        2.38609546014761       -0.11105026710875
H           -2.60370851780279        2.49591409702302       -0.02934624179120
H           -0.84059643308077       -0.02379552790507       -2.48967702469143
H           -2.08983111814905       -0.05672411189212       -4.61010448513352
H           -4.57216070251893       -0.06504001006424       -4.57285343446854
H           -5.76193547663857       -0.03790022387749       -2.40136780511527
H           -5.76378439290778        0.04011303446806        2.40862939274469
H           -4.57570156411269        0.07413033528316        4.58095649287364
H           -2.09338532816000        0.07292270458082        4.62006308441481
H           -0.84250128851988        0.03858353447845        2.50064542050478
H           -2.61386559760214       -2.48729258649557        0.03304807233285
H           -1.32650988371103       -5.53610871833201       -0.81752764293624
H           -1.19201495846842       -5.59982027273943        0.93522877140202
H           -2.61369116504030       -4.85579677512599        0.18515198835707
H            1.12851551005365       -4.53637515396037        0.16498709999147
H            2.30361107480953       -2.39735390460418        0.13011518678728
H            2.77122127233313       -0.45942521418905       -2.07180093050254
H            5.21035565587697       -0.45467734279636       -2.07023401087249
H            7.27302845856222        1.28977918103283        1.69158389058811
H            7.28279137515490       -0.44180979962057        2.07769441161808
H            8.64742135948173        0.28834297848661        1.24326936238444
H            7.04723293513077        0.85731224664173       -2.02815046400395
H            8.48992498379998        1.09755296003322       -1.04793955407784
H            7.03674648758959        2.04648611496666       -0.72653519805406
H            8.50321688135207       -1.41296545599483       -0.50285145915314
H            7.04876981927468       -1.63479924664632       -1.47026144637894
H            7.07108534210691       -2.15435736136598        0.21457504734054
H            5.19755980205231        0.44998900426048        2.11134599333715
H            2.76408247424235        0.44587863297050        2.09803807714736
