  73
       -105.17141258
 C         -1.5253793820        4.9980801655        0.0740826469
 C         -0.8213964722        3.6790197828        0.0611283626
 C          0.5734942012        3.6217652841        0.0892823035
 C          1.2349370075        2.4166632890        0.0761420653
 C          0.5206035282        1.2111993844        0.0309054131
 C         -0.8797725223        1.2572489159        0.0187750101
 C         -1.5229601130        2.4860590252        0.0301836938
 C         -1.7194918995        0.0093727194        0.0030125528
 C         -2.5529390156        0.0108770528       -1.2696013918
 C         -1.8756362575        0.0271607490       -2.4751291543
 C         -2.5589097948        0.0268872041       -3.6818549460
 C         -3.9495642383        0.0091279436       -3.6779763674
 C         -4.6382029164       -0.0080450792       -2.4915183541
 C         -3.9529528937       -0.0077544199       -1.2576133609
 C         -4.7347166913       -0.0256952236       -0.0417755823
 O         -5.9982120562       -0.0484355394       -0.0604096383
 C         -3.9894260387       -0.0128365683        1.1969737515
 C         -4.7104546478       -0.0198092420        2.4102035397
 C         -4.0566312126       -0.0046125301        3.6163161445
 C         -2.6667279283        0.0176708451        3.6608562546
 C         -1.9485287896        0.0231007420        2.4746094149
 C         -2.5904239906        0.0079642655        1.2498396591
 C         -0.8844960155       -1.2422150642        0.0109047325
 C         -1.5324361932       -2.4686009401        0.0102942163
 C         -0.8353055961       -3.6645070015        0.0000820086
 C         -1.5441961885       -4.9809752716        0.0055657227
 C          0.5599126390       -3.6129883868       -0.0209506624
 C          1.2259448871       -2.4103600290       -0.0208535002
 C          0.5161847151       -1.2016477788        0.0059785567
 N          1.1869421015        0.0036591232        0.0143481079
 C          2.6095320944        0.0015847145       -0.0003377800
 C          3.2957645462        0.2306565123       -1.1827641561
 C          4.6795779997        0.2280354851       -1.1946469513
 C          5.4117355379       -0.0028680808       -0.0356696285
 C          6.9311234451       -0.0138892202       -0.0067661835
 C          7.4176813031        1.0760301486        0.9594398520
 C          7.5483692164        0.2540988514       -1.3820117319
 C          7.4100703045       -1.3911967036        0.4743877875
 C          4.7026568143       -0.2317428530        1.1423686221
 C          3.3223512915       -0.2304139573        1.1682718321
 H         -1.2129053349        5.6037857286       -0.7758088660
 H         -1.2797050057        5.5494360590        0.9812297579
 H         -2.6026282200        4.8627894789        0.0297552370
 H          1.1425547789        4.5390451622        0.1243631243
 H          2.3132756636        2.3969025995        0.1055100266
 H         -2.6022295383        2.4957300675        0.0168270868
 H         -0.7941736232        0.0400691834       -2.4716346428
 H         -2.0125139399        0.0398406172       -4.6125203276
 H         -4.4929052515        0.0083986270       -4.6119599034
 H         -5.7166108143       -0.0222059155       -2.4614045222
 H         -5.7875159049       -0.0362579735        2.3487961471
 H         -4.6270406060       -0.0091781713        4.5339998000
 H         -2.1476517763        0.0306163975        4.6070544761
 H         -0.8673829375        0.0399460877        2.5021006410
 H         -2.6117580085       -2.4743452913        0.0168333024
 H         -1.2707197629       -5.5630590067       -0.8738189024
 H         -1.2627675384       -5.5589359548        0.8853199229
 H         -2.6217295814       -4.8408286372        0.0104550015
 H          1.1256914114       -4.5327728244       -0.0400008892
 H          2.3044496057       -2.3956406954       -0.0448752493
 H          2.7429039823        0.4121093134       -2.0927900208
 H          5.1776218468        0.4092598243       -2.1322716043
 H          7.0574253768        2.0518406880        0.6395687980
 H          7.0660642638        0.8975984609        1.9719274221
 H          8.5048072610        1.0996100580        0.9772967736
 H          7.2538593935       -0.5076339692       -2.1004569235
 H          8.6328398607        0.2340802182       -1.3001666002
 H          7.2598778938        1.2330055497       -1.7584916491
 H          8.4970200984       -1.4253549779        0.4825049160
 H          7.0460537762       -2.1712045922       -0.1915224362
 H          7.0568699278       -1.6078196245        1.4788426656
 H          5.2308702450       -0.4145594604        2.0650473623
 H          2.7901143188       -0.4103792852        2.0907226888
