73
 energy: -105.217542660223 gnorm: 0.000056314719 xtb: 6.7.1 (edcfbbe)
C           -1.51125530174045        4.98978511235923        0.06963023175897
C           -0.81362604472239        3.66921397836306        0.04612376766669
C            0.58324731774210        3.60729538735878        0.05943473177316
C            1.24001449871698        2.40159491943322        0.04265012716105
C            0.52144250474766        1.19541408393212        0.00887299276828
C           -0.88184740856253        1.24525536463116        0.00792476849008
C           -1.51915037184234        2.47720800201604        0.02311883638395
C           -1.72501639001239       -0.00272226349336       -0.00035249354351
C           -2.57324990381094        0.00584251945903       -1.26619059891236
C           -1.91221230343804       -0.00368888574074       -2.48134246218858
C           -2.60859500317570        0.00817761679808       -3.68049962012436
C           -3.99920584624105        0.03114682760839       -3.66149253561236
C           -4.67176269516615        0.04014669357057       -2.46538627064684
C           -3.97528550467076        0.02700847434196       -1.23763699152343
C           -4.73694692734421        0.03536782732368       -0.01202247704679
O           -6.01038563954831        0.05463263770863       -0.01679046873134
C           -3.98485521703074        0.01950566196941        1.21955641204103
C           -4.69070334729957        0.02526167211645        2.44192839799560
C           -4.02719444485682        0.01135281228774        3.64308110166839
C           -2.63674340250915       -0.00953297093990        3.67255451166039
C           -1.93124573589976       -0.01499649746294        2.47867433088993
C           -2.58301347107973       -0.00106273766702        1.25851909824575
C           -0.88944069071317       -1.25553089084495       -0.00492584706560
C           -1.53364140076907       -2.48401017354798       -0.00788617081202
C           -0.83488030320338       -3.68005847803064       -0.02993820823549
C           -1.53947187217131       -4.99715037784227       -0.03134607273528
C            0.56215907043655       -3.62611793480911       -0.05707070272168
C            1.22577253613296       -2.42407358711881       -0.05330866978830
C            0.51417687816065       -1.21379733187635       -0.01862207640870
N            1.18479270022363       -0.01121150920769       -0.01010842953943
C            2.61215721891249       -0.01440587907124       -0.01667336667794
C            3.30612384501169        0.18975096454400       -1.19958628978997
C            4.69046240408033        0.19167490105033       -1.19935968106109
C            5.41486927292046       -0.00751416093092       -0.02906733007948
C            6.93443440159937       -0.00243161887618        0.01307495628847
C            7.40006300559915        1.11962596940589        0.95350874506409
C            7.56235289367969        0.23505567065987       -1.36362302195364
C            7.42592395759049       -1.35994758631978        0.53748509848046
C            4.69641002020929       -0.21408288923233        1.14787354279553
C            3.31553014145478       -0.21920189186683        1.16313959906312
H           -1.18018139334718        5.60883918440214       -0.76326670064133
H           -1.27535181126047        5.52214245403508        0.99092760771932
H           -2.58865961388223        4.86210758195339        0.00726398811198
H            1.15359453417379        4.52370452636074        0.08557589200335
H            2.31802983542558        2.37843928624531        0.05885515641948
H           -2.59972685354997        2.49148186930238        0.01952291574498
H           -0.83089083738812       -0.02127265980231       -2.49301886991566
H           -2.07291469178956        0.00021348659206       -4.61760800178348
H           -4.55507407786206        0.04148228113226       -4.58863316093789
H           -5.75180185733900        0.05730434382791       -2.42079546360169
H           -5.77038971908738        0.04159103803611        2.38931246535842
H           -4.59011175131990        0.01691222492350        4.56600747565191
H           -2.10821175996282       -0.02021620922446        4.61370680529225
H           -0.84992323368497       -0.02948046299375        2.49811468085956
H           -2.61422461820739       -2.49203871675487        0.00499974453897
H           -1.26039480944036       -5.57369855636806       -0.91270469335785
H           -1.25566341618574       -5.57733716828108        0.84627935809066
H           -2.61773694130623       -4.86192788258783       -0.02771368241317
H            1.12709642897740       -4.54586826539941       -0.08331396214470
H            2.30373440106165       -2.40682309896448       -0.07989168448893
H            2.76162018460332        0.34832131922332       -2.11865307215170
H            5.19487176270963        0.35321336344857       -2.13705118841776
H            7.02872986269743        2.08168537590394        0.60578547814805
H            7.04521120373168        0.96280377202495        1.96832364397148
H            8.48687293129998        1.15835233745554        0.97637497986456
H            7.28149770576034       -0.54801530728108       -2.06426518552622
H            8.64645334541249        0.22686788909099       -1.27142426866819
H            7.26943181722704        1.20130731622555       -1.76799390778370
H            8.51332276449099       -1.37838547376613        0.55789777998562
H            7.08068841935681       -2.16289093172123       -0.11094618436539
H            7.06524405245628       -1.55368400733129        1.54377166284618
H            5.21691517446876       -0.37289213288301        2.07911406573581
H            2.77792345718721       -0.37970731277681        2.08586646333331
