  56
  -84.7416488800000       0.334339357712225      !
 C          0.8133014846        2.9207845077       -1.3262836144
 C          0.2988237779        0.5093585089        0.1448527888
 C         -1.7028220840        1.3464242472        2.2613457092
 C          1.2764022195       -0.4160507855        0.7877927990
 C          2.7799380543        0.6488144432       -0.3231869561
 C          3.9503251216       -0.3437781444       -0.4420257672
 C          3.3889849693       -2.1857011771        0.6053235201
 C          2.0217653360       -2.6863346219        0.9272679656
 C          0.9865933190       -1.8383744470        0.9523544683
 N         -0.3475766568       -2.2161776934        0.8426454635
 C         -1.1890461814       -1.5197451611       -0.0225428573
 C         -2.1192045254       -2.1497201306       -0.7469100068
 C         -3.2505114756       -1.4338205051       -1.3884582122
 C         -4.0237684178        0.5360653259       -0.8189137760
 C         -2.8998431987        1.2613679270       -0.0536982500
 C         -1.1175641659       -0.0183288388        0.0206780554
 O          1.9645704486        3.6388588013       -1.0953861539
 S          0.1837819255        2.3493442034        0.3688180225
 O          1.2894892835        2.8539547101        1.2135853600
 C          1.4352385285        0.0063678449       -0.7028485352
 C          2.5954937628        0.2281279259        1.1527466955
 C          3.7697556167       -0.7521139565        1.0276045360
 C          3.5782970102       -1.7675702566       -0.9070741344
 C          2.4077844386       -1.8567560411       -1.8346464982
 C          1.3961526697       -0.9936421710       -1.7695734450
 C         -2.1904631589        0.4926157259        1.0904358786
 C         -3.0118883786       -0.6213797352        1.6742441791
 C         -4.0256042335       -1.2022253601        1.0501447542
 C         -4.3319738001       -0.9020060046       -0.3670492120
 C         -2.9940089263        0.0135004444       -1.8364017625
 C         -1.8813496617        0.7469688531       -1.0798644255
 H          2.0947293914        3.5639043323       -0.1139929593
 H          0.0215190391        3.5591366481       -1.7342666410
 H          0.9912933898        2.0585608906       -1.9718219661
 H         -1.6555443520        2.4031638731        2.0169577540
 H         -2.3929353805        1.2426071672        3.0977217833
 H         -0.7203532491        1.0202107334        2.5946075063
 H          2.9973340046        1.6572606838       -0.6535144599
 H          4.8775117814        0.0651408037       -0.8340125355
 H          4.1438661004       -2.9142620005        0.9036787582
 H          1.8714425143       -3.7540665371        0.9775267232
 H         -0.4871807738       -3.2189340400        0.8195468110
 H         -2.1733788072       -3.2293828133       -0.7267510582
 H         -3.7016121018       -2.0462075682       -2.1692824979
 H         -4.8766111387        1.1485877183       -1.0980012503
 H         -3.0590981434        2.3208686135        0.1265652842
 H          2.6032226211        0.9209438449        1.9874268918
 H          4.5572925898       -0.6556172666        1.7693467177
 H          4.4305312129       -2.2883710860       -1.3465494719
 H          2.4349899287       -2.6232351570       -2.5952396325
 H          0.5456236257       -1.0390530216       -2.4346057150
 H         -2.7619835005       -0.9094043518        2.6850922670
 H         -4.6081735335       -1.9694493437        1.5383758615
 H         -5.3374392511       -1.2234853142       -0.6372042221
 H         -3.0577726885        0.2121430650       -2.9032283248
 H         -1.2751168287        1.4163201696       -1.6824214007
  56
  -84.7416449800000       0.332962395884968      !
 C          0.8191351863        2.9322199341       -1.3110625875
 C          0.2990735910        0.5121496886        0.1496742151
 C         -1.7204322633        1.3595549490        2.2558948508
 C          1.2802663027       -0.4129179328        0.7875477764
 C          2.7782083926        0.6474323633       -0.3356721326
 C          3.9455684094       -0.3480366749       -0.4606030448
 C          3.3887494213       -2.1861324797        0.5958571775
 C          2.0234222794       -2.6837749367        0.9301783101
 C          0.9898904661       -1.8341306792        0.9596875251
 N         -0.3462509384       -2.2092553572        0.8616037868
 C         -1.1861748956       -1.5184962452       -0.0104474527
 C         -2.1114906262       -2.1540978362       -0.7359582815
 C         -3.2400643418       -1.4437458402       -1.3882308758
 C         -4.0199203491        0.5276286559       -0.8340926557
 C         -2.9018135410        1.2590698175       -0.0661278552
 C         -1.1171061891       -0.0166322513        0.0255281749
 O          1.9749638891        3.6412348926       -1.0746506202
 S          0.1864025959        2.3509639239        0.3793634243
 O          1.2918529384        2.8493836947        1.2283546556
 C          1.4297893843        0.0068634269       -0.7045174194
 C          2.6028487482        0.2303289800        1.1423918532
 C          3.7748052922       -0.7520162346        1.0113886988
 C          3.5670592409       -1.7723724206       -0.9190959547
 C          2.3895855219       -1.8618690392       -1.8378563200
 C          1.3808858683       -0.9956349299       -1.7687177416
 C         -2.1973415036        0.4980603989        1.0862161248
 C         -3.0193959010       -0.6151248976        1.6708422305
 C         -4.0289265952       -1.2007455899        1.0443699175
 C         -4.3283219268       -0.9084059171       -0.3760052788
 C         -2.9828959442        0.0015933880       -1.8424902329
 C         -1.8760770663        0.7415379554       -1.0833942167
 H          2.1027695618        3.5600254452       -0.0932264128
 H          0.0305155944        3.5785294113       -1.7129394483
 H          0.9914239550        2.0745906236       -1.9640525741
 H         -0.7394678239        1.0386314367        2.5975569834
 H         -1.6753268265        2.4148585895        2.0064375031
 H         -2.4154603335        1.2575981864        3.0880896794
 H          2.9957119336        1.6547421974       -0.6694656961
 H          4.8707713772        0.0575897729       -0.8607038266
 H          4.1449033434       -2.9149563656        0.8903184659
 H          1.8722156649       -3.7510757296        0.9867299397
 H         -0.4873600320       -3.2119916974        0.8444998581
 H         -2.1637710303       -3.2337348783       -0.7102534505
 H         -3.6855532776       -2.0612863436       -2.1682647744
 H         -4.8722130431        1.1370512870       -1.1217566699
 H         -3.0642888638        2.3192011997        0.1076049054
 H          2.6172875976        0.9247733629        1.9755717740
 H          4.5678190912       -0.6545571042        1.7471320308
 H          4.4148548136       -2.2961783839       -1.3636024831
 H          2.4098853159       -2.6304058467       -2.5966937851
 H          0.5263069915       -1.0399022423       -2.4285710552
 H         -2.7746753376       -0.8971874988        2.6845573917
 H         -4.6127234042       -1.9664322178        1.5335585035
 H         -5.3315902051       -1.2333496259       -0.6502457136
 H         -3.0406311566        0.1940586844       -2.9108408544
 H         -1.2675655990        1.4095352998       -1.6854322073
  56
  -84.7416442300000       0.332698246402807      !
 C          0.8189152326        2.9321680385       -1.3106065445
 C          0.2991009428        0.5118980203        0.1509121400
 C         -1.7226872470        1.3615734625        2.2550540424
 C          1.2805989422       -0.4135289446        0.7878581425
 C          2.7783355623        0.6476815230       -0.3349386995
 C          3.9456381995       -0.3476150028       -0.4609416473
 C          3.3888524324       -2.1866893734        0.5937226248
 C          2.0236327446       -2.6844360996        0.9282847472
 C          0.9902498639       -1.8347291227        0.9597865315
 N         -0.3464089937       -2.2093662467        0.8641919049
 C         -1.1862852105       -1.5188743592       -0.0083444325
 C         -2.1115106238       -2.1548739334       -0.7334857029
 C         -3.2396224530       -1.4451164524       -1.3871787582
 C         -4.0194365019        0.5271634002       -0.8360553488
 C         -2.9017321127        1.2591593405       -0.0681214638
 C         -1.1171212081       -0.0169306706        0.0263877834
 O          1.9746711031        3.6414185388       -1.0741943355
 S          0.1870682372        2.3507344133        0.3801494428
 O          1.2927992764        2.8484765266        1.2291881016
 C          1.4298104723        0.0073241859       -0.7038728593
 C          2.6033292153        0.2293917799        1.1428347293
 C          3.7751029445       -0.7530251405        1.0106836487
 C          3.5669962321       -1.7714186139       -0.9208015519
 C          2.3895654602       -1.8597519784       -1.8396958793
 C          1.3806990374       -0.9939047038       -1.7691873568
 C         -2.1982471579        0.4991554518        1.0854487224
 C         -3.0208113266       -0.6133820602        1.6706824466
 C         -4.0302956436       -1.1991685170        1.0443699775
 C         -4.3285451471       -0.9082532394       -0.3764747484
 C         -2.9817803838       -0.0004020611       -1.8430271042
 C         -1.8753170601        0.7401105419       -1.0840187232
 H          2.1028997542        3.5604013198       -0.0923709723
 H          0.0301801010        3.5781859752       -1.7122871360
 H          0.9913809712        2.0740022556       -1.9630699383
 H         -2.4219534349        1.2644736928        3.0842567715
 H         -0.7445172257        1.0375144490        2.6014040983
 H         -1.6723406969        2.4161213004        2.0036162817
 H          2.9960824250        1.6550793486       -0.6680450131
 H          4.8707472794        0.0584645077       -0.8607472987
 H          4.1450003451       -2.9159316006        0.8871800209
 H          1.8723989469       -3.7517286436        0.9846908702
 H         -0.4879037375       -3.2120744830        0.8475720965
 H         -2.1636646927       -3.2345063323       -0.7072462341
 H         -3.6846372246       -2.0635255207       -2.1667797871
 H         -4.8713257845        1.1364799646       -1.1251073860
 H         -3.0639419250        2.3195383202        0.1042115507
 H          2.6179913194        0.9230571756        1.9766518749
 H          4.5682332864       -0.6563966145        1.7464064736
 H          4.4148717213       -2.2946139445       -1.3658912190
 H          2.4097254828       -2.6274711233       -2.5992909924
 H          0.5257763468       -1.0376654493       -2.4286107502
 H         -2.7764650405       -0.8944088654        2.6848580649
 H         -4.6148877113       -1.9638883148        1.5341279231
 H         -5.3317213081       -1.2331418403       -0.6510680410
 H         -3.0387485117        0.1908035825       -2.9116325477
 H         -1.2661531808        1.4071498157       -1.6864081316
