  42
        -63.79257714
 C          4.9764947045        0.7990423447        0.7700822049
 C          4.9934853039       -0.1961215106       -0.1954082101
 C          3.8357382078       -0.8762119568       -0.5156607863
 C          2.6266605912       -0.5626525029        0.1122028779
 C          1.4040253952       -1.2990667351       -0.1830437664
 C          1.4641074606       -2.6839517510       -0.2783736189
 C          0.3225608264       -3.4549315933       -0.2847524689
 C         -0.9490491122       -2.8627933567       -0.1224732464
 C         -2.1065873271       -3.6419528874       -0.0207698687
 C         -3.3486872235       -3.0401671265        0.1390583355
 C         -3.4571132360       -1.6734050082        0.2106867142
 C         -2.3169512775       -0.8384142101        0.1185160953
 C         -2.4025046713        0.5834245949        0.2072930968
 C         -3.5821542945        1.2553788207        0.6112420161
 C         -3.6575199399        2.6282264264        0.6034707765
 C         -2.5813109432        3.3921892217        0.1779329804
 C         -1.3816897998        2.7769300244       -0.2159318907
 C         -0.2870806932        3.5344802139       -0.6720583250
 C          0.8682734328        2.9056754057       -1.1112821696
 C          1.0000716968        1.5411315789       -1.0200421617
 C         -0.0326146047        0.7398407417       -0.4603141594
 C          0.1187063707       -0.6532001994       -0.2285675171
 C         -1.0481429560       -1.4439504563       -0.0721652571
 C         -1.2744029405        1.3584127842       -0.1570228908
 C          2.6256322131        0.4406410639        1.0902956514
 C          3.7887017785        1.1089866641        1.4136556554
 H          5.8845679641        1.3267484877        1.0210018165
 H          5.9162479651       -0.4401347570       -0.7021381091
 H          3.8533024355       -1.6339819383       -1.2858642574
 H          2.4303057771       -3.1680197614       -0.2759845615
 H          0.3921991246       -4.5312281624       -0.3390596423
 H         -2.0247226285       -4.7170975626       -0.0809873726
 H         -4.2353061773       -3.6543636580        0.2033704956
 H         -4.4346582875       -1.2314060838        0.3143323090
 H         -4.4329345602        0.6866890689        0.9495921687
 H         -4.5660132651        3.1171730299        0.9248259070
 H         -2.6498490226        4.4697064902        0.1567416977
 H         -0.3788080853        4.6092570059       -0.7215983447
 H          1.6701253029        3.4929656581       -1.5349239793
 H          1.8786827836        1.0644229421       -1.4219180507
 H          1.7082941280        0.6695458144        1.6122386670
 H          3.7711108794        1.8756081084        2.1745317619
  42
        -63.79241019
 C          5.0079287601        0.7051016210       -0.6384950841
 C          3.8360122838        0.9695211608       -1.3300215202
 C          2.6585437905        0.3474078339       -0.9700558971
 C          2.6256413843       -0.5615673395        0.0968852486
 C          1.3905828475       -1.2627013673        0.4178022963
 C          1.4372571834       -2.6278629838        0.6760241247
 C          0.2953121613       -3.3974391384        0.6830062455
 C         -0.9562759045       -2.8351446379        0.3463245932
 C         -2.1005179104       -3.6287590556        0.2183221254
 C         -3.3194442816       -3.0556170207       -0.1236494322
 C         -3.4196493523       -1.7028311288       -0.3358463408
 C         -2.2946844474       -0.8520474475       -0.2098888396
 C         -2.3748891415        0.5580432517       -0.4174148205
 C         -3.5217726431        1.1885832597       -0.9583929314
 C         -3.6047164534        2.5581130489       -1.0510228900
 C         -2.5685822051        3.3606312497       -0.5986806095
 C         -1.3978028106        2.7860369693       -0.0769961355
 C         -0.3421255979        3.5845023139        0.4005116551
 C          0.7871139091        3.0003248761        0.9542669597
 C          0.9325215389        1.6342151633        0.9683328755
 C         -0.0613932726        0.7847022758        0.4097890082
 C          0.1049066159       -0.6216915960        0.3123057946
 C         -1.0478751016       -1.4295568142        0.1434046708
 C         -1.2804630704        1.3680326312       -0.0265339659
 C          3.8185298415       -0.8256871292        0.7776451096
 C          4.9918271521       -0.1946553902        0.4166259198
 H          5.9280193310        1.1949282480       -0.9204438457
 H          3.8429864606        1.6612631856       -2.1598001055
 H          1.7563303434        0.5352081327       -1.5330362860
 H          2.3978542287       -3.1068760881        0.8002169967
 H          0.3556198527       -4.4600326590        0.8660957355
 H         -2.0276075834       -4.6915448632        0.3958364944
 H         -4.1955614880       -3.6809222009       -0.2179822403
 H         -4.3817900325       -1.2831966281       -0.5805091447
 H         -4.3418768400        0.5901094252       -1.3202709803
 H         -4.4889798650        3.0141928054       -1.4726938609
 H         -2.6448645474        4.4363489645       -0.6554816933
 H         -0.4439692115        4.6591286879        0.3700141144
 H          1.5572528888        3.6245982634        1.3838400995
 H          1.7895146115        1.1953434829        1.4520455850
 H          3.8121375827       -1.5032304792        1.6193319785
 H          5.8992193818       -0.3937855701        0.9689265515
  42
        -63.79230461
 C          5.0308535875        0.7890387424        0.6371508728
 C          4.9842374901       -0.2054553863       -0.3277328674
 C          3.8064317294       -0.8833767569       -0.5709780627
 C          2.6414961076       -0.5654027182        0.1325475245
 C          1.4009398266       -1.2948947271       -0.1123811538
 C          1.4633464335       -2.6810692538       -0.1719481847
 C          0.3242147523       -3.4555297973       -0.1858934682
 C         -0.9509208956       -2.8608804908       -0.0825447800
 C         -2.1103122438       -3.6429634351       -0.0243794942
 C         -3.3600401876       -3.0442117346        0.0695990946
 C         -3.4727538552       -1.6774841736        0.1278720334
 C         -2.3303905176       -0.8402392897        0.0854878166
 C         -2.4266183362        0.5804065093        0.1706106492
 C         -3.6297518625        1.2448109799        0.5160647522
 C         -3.7135962983        2.6166690017        0.5079201126
 C         -2.6189056912        3.3877801060        0.1468794722
 C         -1.3974949503        2.7802603430       -0.1872408771
 C         -0.2857865170        3.5489243734       -0.5785845686
 C          0.8848266705        2.9287866589       -0.9874816056
 C          1.0120800259        1.5621529761       -0.9238072090
 C         -0.0320721408        0.7484648948       -0.4033929610
 C          0.1180227423       -0.6470921210       -0.1772365767
 C         -1.0521285575       -1.4412147303       -0.0513627621
 C         -1.2860944145        1.3613813395       -0.1379764784
 C          2.7052262589        0.4320149502        1.1129557349
 C          3.8891371242        1.0974437864        1.3602284208
 H          5.9530734149        1.3184199288        0.8252376273
 H          5.8702511578       -0.4492223942       -0.8961683324
 H          3.7698540171       -1.6404619974       -1.3412529940
 H          2.4311259402       -3.1613996597       -0.1432595271
 H          0.3967714478       -4.5326385089       -0.2130327736
 H         -2.0219342791       -4.7182898139       -0.0706131329
 H         -4.2476343598       -3.6598227908        0.0945076862
 H         -4.4546816105       -1.2366552812        0.1821892279
 H         -4.4938819194        0.6705693754        0.8077938552
 H         -4.6413373217        3.0992568792        0.7803053035
 H         -2.6910329337        4.4651345298        0.1281694599
 H         -0.3773812270        4.6244121884       -0.6096711851
 H          1.7011847944        3.5233280647       -1.3715023079
 H          1.8980459497        1.0964191738       -1.3207018790
 H          1.8216999861        0.6649121054        1.6888870263
 H          3.9244589578        1.8626347921        2.1219405568
