  68
       -109.63190537
 N          0.2366968249        6.6021776479       -0.5061229894
 C         -0.1723709570        5.5356795646       -0.4107378025
 C         -0.6729723232        4.2171683912       -0.3084938461
 C         -0.3202844879        3.4192724760        0.7808611851
 C         -0.8109789458        2.1337159648        0.8778738053
 C         -1.6549722530        1.6343654770       -0.1118000937
 N         -2.1106729966        0.3104275552       -0.0311034767
 C         -1.2933894923       -0.8045913347       -0.0101356290
 C          0.1583192449       -0.7613724055       -0.0498479509
 C          0.8679256451        0.1649857890       -0.8131963678
 C          2.2471124281        0.1728286507       -0.7980660223
 C          2.9491059759       -0.7455321362       -0.0203839611
 N          4.3455287744       -0.7078995558        0.0181988270
 C          5.1959673298       -1.7826637165       -0.1624179500
 C          4.8996627338       -3.1024396302       -0.4703898837
 C          5.9555759726       -3.9795596996       -0.6300482582
 C          7.2771624647       -3.5597850303       -0.4973726964
 C          7.5784661854       -2.2422554497       -0.2159670144
 C          6.5343181435       -1.3419429406       -0.0509551020
 C          6.4802576317        0.0681221219        0.2183051427
 C          7.4508164509        1.0349943570        0.4445505222
 C          7.0472541450        2.3294659179        0.7042949009
 C          5.6955142379        2.6617187706        0.7553125900
 C          4.7117153113        1.7169501341        0.5335104863
 C          5.1116911320        0.4197720036        0.2470010787
 C          2.2445431484       -1.6987052962        0.7133952239
 C          0.8666389531       -1.7087721786        0.6908936877
 N         -1.9808141958       -1.9145464287        0.0421059082
 C         -3.2901409080       -1.5494366645        0.0508336671
 C         -4.4314436146       -2.3987107627        0.0590207677
 C         -4.2982823842       -3.7910470333        0.0511104503
 C         -5.4118493844       -4.5925571511        0.0215850305
 C         -6.6760162906       -4.0067943154       -0.0049524186
 C         -6.8182621201       -2.6389900686        0.0091383800
 C         -5.7049259925       -1.7855482807        0.0496912818
 C         -5.8213357833       -0.3387108409        0.1066011960
 C         -7.0695502311        0.2949700942        0.1869221212
 C         -7.1901071820        1.6600983750        0.2942742427
 C         -6.0525831492        2.4590036207        0.3483881703
 C         -4.8111857921        1.8790045882        0.2627270945
 C         -4.6665568939        0.4918244882        0.1164531923
 C         -3.4058611792       -0.1615961300        0.0175306589
 C         -2.0056708756        2.4304984188       -1.2023194430
 C         -1.5204988234        3.7174029819       -1.2997567958
 H          0.3319934251        3.8148255209        1.5448237872
 H         -0.5457637819        1.5069469129        1.7158852122
 H          0.3465135640        0.8640560415       -1.4495792051
 H          2.7911932096        0.8801801372       -1.4056905724
 H          3.8800710995       -3.4341517575       -0.5958100593
 H          5.7509702531       -5.0132008308       -0.8669607979
 H          8.0740362451       -4.2769341300       -0.6263395884
 H          8.6027502664       -1.9127604178       -0.1291206066
 H          8.4980155184        0.7739158695        0.4205865320
 H          7.7859077575        3.0974454422        0.8790741736
 H          5.4093993641        3.6796434786        0.9753486111
 H          3.6663070362        1.9814543234        0.5928860533
 H          2.7851093096       -2.4128126927        1.3158707300
 H          0.3115687469       -2.4393607041        1.2579796534
 H         -3.3010996194       -4.2026682305        0.0602195648
 H         -5.3147238093       -5.6680344060        0.0121556928
 H         -7.5554072966       -4.6336778321       -0.0376926876
 H         -7.8165026132       -2.2318757500       -0.0154780855
 H         -7.9713907882       -0.2952116356        0.1758310792
 H         -8.1691512892        2.1118768599        0.3532432980
 H         -6.1436019904        3.5289251381        0.4628187975
 H         -3.9331819206        2.5018164525        0.3308136438
 H         -2.6589553393        2.0301706063       -1.9635321937
 H         -1.7866202967        4.3402635383       -2.1405089119
