29
 energy: -47.337497488963 gnorm: 0.000045466169 xtb: 6.7.1 (edcfbbe)
C            0.58980337423426        3.55575810316283       -0.00111049637205
C            1.79545968425102        2.88870305129063       -0.00028546638720
C            1.85009834533131        1.45700662299976        0.00025494755502
C            3.06139581301581        0.77449850240580        0.00110755976399
C            3.09547430691807       -0.62511248123351        0.00112885500609
C            1.91990890746158       -1.36833220231009        0.00028123230390
C            1.93975407542821       -2.80114393129837       -0.00023246748067
C            0.76752887927171       -3.52859978044610       -0.00110142434855
C           -0.45857589997796       -2.89576347095532       -0.00114829300004
C           -0.52840961132039       -1.46710702398927       -0.00046792268868
C           -1.72374601742590       -0.75094683336898       -0.00015536258079
N           -3.03881565434356       -1.14509248378779        0.00035278172523
C           -3.78821800268056       -0.00244788287524        0.00067787947806
N           -3.08088516249162        1.08369997923799        0.00031158463714
C           -1.77325017798702        0.67348302751991       -0.00018745750789
C           -0.59683928407997        1.43431193043016       -0.00049557969998
C           -0.60349808204005        2.85742640271549       -0.00113751108765
C            0.62924767948842        0.72390647739239       -0.00011533369362
C            0.66515096686062       -0.69848797590129       -0.00010528951920
H            0.57561353797583        4.63653781845837       -0.00170730380703
H            2.72706860649297        3.43449473379844       -0.00012500931514
H            3.98675977415632        1.33159709343091        0.00167564852323
H            4.04689897360236       -1.13665948213246        0.00171379308611
H            2.89676149216353       -3.30028360960327       -0.00005502237807
H            0.80879752004574       -4.60885962362112       -0.00172997840271
H           -1.37196148409436       -3.47025977943216       -0.00185499979315
H           -3.38322750732924       -2.09066305505891        0.00072141437897
H           -4.86125168763588       -0.02127819824377        0.00122471315865
H           -1.55718608801421        3.35941557430262       -0.00168098390948
