29
 energy: -47.337489033879 gnorm: 0.000079736550 xtb: 6.7.1 (edcfbbe)
C            0.53524964456505        3.56415350839773        0.00094731839435
C            1.75069277395920        2.91508727934841       -0.00002086761495
C            1.82657908523231        1.48436934329499       -0.00050438271427
C            3.04781590216986        0.81986568973316       -0.00147264683520
C            3.10266559735520       -0.57908230062637       -0.00134777798751
C            1.93828135424028       -1.33961296206916       -0.00026938547563
C            1.97938502745529       -2.77195098354097        0.00046381605931
C            0.81810060435284       -3.51671410266985        0.00145919103325
C           -0.41723887831315       -2.90212935351750        0.00140543809135
C           -0.50822669910744       -1.47468991998416        0.00057882795765
C           -1.71402755331825       -0.77631024653236        0.00018484380526
N           -3.02308735393977       -1.19000316615333       -0.00047959231964
C           -3.78937128880410       -0.05863287612136       -0.00094937516580
N           -3.09829379128909        1.03790268840559       -0.00058331272867
C           -1.78471892969342        0.64718725557631        0.00011116717814
C           -0.61977568962852        1.42544062085975        0.00043636835823
C           -0.64763347043869        2.84829590121508        0.00107316913972
C            0.61670892432415        0.73329399338644        0.00004687921576
C            0.67374838378452       -0.68841828052575        0.00013905436703
H            0.50522746821440        4.64458981185684        0.00151501687723
H            2.67404236563821        3.47477522133610       -0.00031822267682
H            3.96488230759754        1.39047429981983       -0.00222155119651
H            4.06157210881578       -1.07642332750293       -0.00196630158418
H            2.94366513378513       -3.25690670434343        0.00030923077931
H            0.87536688862252       -4.59622195528134        0.00208567709963
H           -1.32196454415258       -3.49015018269238        0.00212448846975
H           -3.35358084127166       -2.14050753313065       -0.00056630200435
H           -4.86201632195505       -0.09359436785584       -0.00168975446755
H           -1.60867773669062        3.33618975796058        0.00172308912741
