29
 energy: -47.421697141147 gnorm: 0.000034619147 xtb: 6.7.1 (edcfbbe)
C            0.59615030366864        3.53175809679497       -0.00262583890331
C            1.80077529333099        2.85679122298798       -0.00067211315952
C            1.84232139624433        1.45913289661535        0.00077934793247
C            3.07969278295690        0.74980925272293        0.00279229741036
C            3.11356538958613       -0.60199239509755        0.00281541087042
C            1.91239324416569       -1.37117643254697        0.00080706526853
C            1.94090820489519       -2.76931647602049       -0.00065480819570
C            0.77167281027185       -3.50252367919691       -0.00271794482382
C           -0.45697733749273       -2.86321737895265       -0.00255360654807
C           -0.52775621378643       -1.47236958900711       -0.00085917205222
C           -1.74172494065183       -0.73304579900280       -0.00004937085862
N           -3.04956013522862       -1.14109671217228        0.00132710322658
C           -3.80549520218074       -0.01087883335186        0.00215181242223
N           -3.09291539925214        1.07758025002132        0.00123990536099
C           -1.79078556678024        0.65883108548115       -0.00008247077806
C           -0.59742355031359        1.44104881437461       -0.00087562830172
C           -0.59893840152711        2.83160515904160       -0.00246729219032
C            0.62922322263026        0.72588433151806        0.00014619632044
C            0.66546606455489       -0.69841779564449        0.00015651418859
H            0.58445275416611        4.61227547464727       -0.00416109741695
H            2.73109201048550        3.40714187898397       -0.00042397850359
H            3.99481446844625        1.32522358720376        0.00423091836070
H            4.05553384555243       -1.13225450300612        0.00425759920066
H            2.89675218592010       -3.27341426027686       -0.00038607576083
H            0.81175763395349       -4.58226265072266       -0.00435075485989
H           -1.36512766526716       -3.44886791669050       -0.00394835687470
H           -3.38419122267691       -2.09081740175378        0.00197413050638
H           -4.87779612148414       -0.03083717977666        0.00355131050656
H           -1.54801365996286        3.34523249555860       -0.00363354041188
