70
 energy: -98.332647423013 gnorm: 0.000095920828 xtb: 6.7.1 (edcfbbe)
C            1.22511484445325        1.72560773492232       -4.50048916687328
C            0.97718415528296        0.53925654096888       -3.57654598598366
C            2.22777891619622        0.17334310595750       -2.78280445444609
C            1.96382363222265       -0.99200098556139       -1.83043472271564
O            3.11088399530871       -1.35643001890066       -1.08291224811014
C            3.66733728764168       -0.48514552163876       -0.18036276591733
C            5.06066486288517       -0.54078163049041       -0.10971967138182
C            5.76699319042668        0.22908615805968        0.79118876245451
C            5.08756087379242        1.08717170192501        1.64051861424622
C            3.70901094208597        1.14329137552875        1.58425777417174
C            2.97401746143078        0.36319639219383        0.69250874920430
C            1.49609021348968        0.46265688415443        0.76931395059757
C            0.76470769265255       -0.55688875135201        1.39922593028451
C            1.39989079559922       -1.70695847592053        1.93693178747720
C            0.68302931182642       -2.68205352750653        2.55988429827124
C           -0.71449269468732       -2.55958135942287        2.69591601566474
C           -1.36029760013235       -1.46999965297914        2.19720259069329
C           -0.65502407276632       -0.43993210580722        1.52138857492224
C           -1.31167363779516        0.68058856723160        0.99382234666593
C           -2.78372894751444        0.79495250184764        1.10649961342206
C           -3.35799119350262        1.69531207399873        1.99023508661819
C           -4.73462252817838        1.80734339750033        2.09914592043263
C           -5.54505327545066        1.01651816361239        1.30706987684947
C           -4.99218514049493        0.11182629801863        0.41405764902111
C           -3.61189193983476       -0.01347062118926        0.30876159989229
O           -2.96888928196509       -0.87030821866143       -0.53276987888209
C           -3.72904188313223       -1.80497301752628       -1.27615704539300
C           -2.76258604920414       -2.78060961359432       -1.94065369594797
C           -2.04264246140659       -3.65321986267546       -0.91415192177355
C           -1.06005341806767       -4.61361202463565       -1.57198770311151
C           -0.58037048328651        1.70283257059979        0.37320662961549
C           -1.21543528016460        2.84266694564602       -0.18823944129351
C           -0.49472041230324        3.83951822396534       -0.77031762252111
C            0.91148073806855        3.75978844892930       -0.82707693766201
C            1.55768504538485        2.67382324079549       -0.32207143846819
C            0.84371885265771        1.60564088706979        0.28334536697556
H            1.52827426567110        2.59673909627663       -3.92426139423507
H            0.32100134561160        1.97499911369381       -5.05107247167316
H            2.01204709559893        1.49496359318674       -5.21551686514593
H            0.65877190747716       -0.32270616858935       -4.16730222469180
H            0.17212451651338        0.78291306167699       -2.87907451488950
H            2.55289254810422        1.03870443160464       -2.20128152086723
H            3.03904485540506       -0.09813271586565       -3.46271519589263
H            1.72513704821737       -1.89687881861345       -2.39647513840510
H            1.11894516175573       -0.75696848611797       -1.17580818195754
H            5.56781804671079       -1.21482743223359       -0.78369479091761
H            6.84430592141534        0.16424351405185        0.82515292979246
H            5.62620288628172        1.70194814365465        2.34576944281220
H            3.16661696452637        1.79475874339764        2.25527948908890
H            2.47273011748292       -1.79391239232005        1.84485986105977
H            1.18048540472482       -3.55273482085547        2.96199854094637
H           -1.26706621565317       -3.33742577288138        3.20302575973487
H           -2.42953458770187       -1.36997379626308        2.31307494853383
H           -2.71072227886119        2.30775675300680        2.60161635898039
H           -5.16756562694948        2.50911088210207        2.79581836288666
H           -6.61983179234396        1.09824206811173        1.37690129997481
H           -5.64666195755467       -0.48798844947102       -0.19878555887995
H           -4.40988463287067       -2.35180831945059       -0.60989007040096
H           -4.32332231826160       -1.28062461493626       -2.03810225436925
H           -3.32741600331013       -3.40753175867934       -2.63310503822075
H           -2.02988859199753       -2.20848163773682       -2.51183419827272
H           -1.51152963678545       -3.00631025676804       -0.21359362906141
H           -2.78183856355769       -4.22392210141672       -0.34601016892603
H           -1.57765979424100       -5.28003333870346       -2.25928017431252
H           -0.30437303962408       -4.06464066862457       -2.12907007465773
H           -0.55796908563693       -5.21638897189959       -0.81876831266077
H           -2.29287681534790        2.90239361923137       -0.14465409480683
H           -0.99353130800807        4.69970124560954       -1.19294144913761
H            1.47024423339318        4.56603318243101       -1.28025254254903
H            2.63576518377118        2.61266831655969       -0.36674530032741
