70
 energy: -98.330698429052 gnorm: 0.000032203626 xtb: 6.7.1 (edcfbbe)
C            5.78962823047199        2.51035273430952        2.12043256257735
C            5.02329536477130        2.47124905166455        0.80318874362290
C            4.06303562309260        1.28563705068505        0.74493876693709
C            3.28368394606699        1.25916013420081       -0.57122912532263
O            2.34488417929431        0.20156541140701       -0.63296868744205
C            2.77168490562911       -1.07602176253178       -0.85512514640264
C            4.06890964657305       -1.44564969491886       -1.19127495977530
C            4.37930033712362       -2.77526319170011       -1.42792846839817
C            3.40698123901021       -3.75279368169699       -1.33336377732179
C            2.11221352032858       -3.39186684498142       -0.99946369721781
C            1.78087680133364       -2.06785354384392       -0.75608067752329
C            0.39406825093975       -1.70156446317545       -0.38695479960104
C           -0.61637943522372       -1.72587740626022       -1.35781080475602
C           -0.34269384554667       -2.03356589156146       -2.71698393376715
C           -1.33390866233965       -2.06104812736699       -3.64925596985866
C           -2.66592256410817       -1.78053640679609       -3.28117672728445
C           -2.96943379429424       -1.46957374268001       -1.99156576108469
C           -1.96442248816860       -1.42443023144586       -0.98860356356706
C           -2.26478428206223       -1.07374767229644        0.33448826366886
C           -3.67354595926220       -0.84118247433630        0.74490685962560
C           -4.43867213061716       -1.97857112158933        1.00386860694406
C           -5.73803829719555       -1.89860854011720        1.46231735445252
C           -6.30394683081107       -0.65243716666997        1.68131835738242
C           -5.57294025682983        0.48549731539234        1.41566530443652
C           -4.26052572232695        0.41408488726771        0.93940963795753
O           -3.67651883199725        1.63252675256802        0.74067812856251
C           -2.57526082017896        1.78342187908887       -0.14025475466069
C           -2.50330505684482        3.26090715843508       -0.52121893843921
C           -1.49089903037174        3.53852578136408       -1.63102808913621
C           -0.04747074741083        3.29990299726380       -1.20238950569730
C           -1.25139917683892       -1.03612596710183        1.30303938837207
C           -1.52490284791470       -0.69437687615745        2.65414042743604
C           -0.53734515163408       -0.67392290827768        3.59028920672068
C            0.78507708399689       -1.00969472463725        3.23516353165636
C            1.08704542790041       -1.34772386157902        1.95187696659029
C            0.09280683094731       -1.36038735141367        0.93867926762858
H            6.37404451166877        1.60184571345510        2.25044049161247
H            5.10153765281267        2.59759688294907        2.95845749689797
H            6.46731064671277        3.36073680635884        2.14179052888202
H            5.73103451437392        2.40522791829480       -0.02673048704462
H            4.45786624929374        3.39791520587363        0.68296433628269
H            3.34682113114554        1.34629716915693        1.56733856302033
H            4.62105962718195        0.35381183179946        0.86089083661354
H            3.96564070294009        1.22488418435048       -1.42971012649152
H            2.67460041664700        2.16282136786952       -0.65600657340597
H            4.84995753227472       -0.70687057262623       -1.27633985131922
H            5.39377475215564       -3.04083833327681       -1.68712065125610
H            3.65150507416265       -4.78824765607434       -1.51582932723743
H            1.34013098998280       -4.14346079533074       -0.91703104744530
H            0.67864554518884       -2.24310145066561       -2.99898539952394
H           -1.10866162558215       -2.29543059996335       -4.67964729599490
H           -3.44127872470436       -1.81008472306317       -4.03309265066522
H           -3.98834152894807       -1.24698336603521       -1.70675529346263
H           -3.97961046005624       -2.94469910153295        0.84669977888650
H           -6.30131440573618       -2.79907617106576        1.65505929233164
H           -7.31507571308770       -0.56731562491683        2.05046623064117
H           -5.99295305032756        1.46800842584102        1.57001296746413
H           -1.65011986782919        1.46366460704549        0.35212823853601
H           -2.72522285814948        1.17575064209839       -1.04014155440933
H           -3.49813642250665        3.56772965649783       -0.85251070622650
H           -2.25571911329984        3.84325104166253        0.36811535127744
H           -1.72133656615725        2.90943838210455       -2.49414373886785
H           -1.60113434459407        4.58052896807497       -1.94006369912347
H            0.18522538356349        3.88210144198677       -0.31292150837943
H            0.12694555129698        2.24903093015145       -0.98522001135753
H            0.63116204400797        3.60019193606187       -1.99827066278710
H           -2.54128939106781       -0.44866108757855        2.92659827371042
H           -0.76052221259739       -0.40857305079362        4.61364180861512
H            1.55461926141127       -1.00111660583162        3.99375506171499
H            2.09765924235371       -1.61638247338120        1.68243734120022
