  71
       -120.95860744
 Cl        -1.5073583728       -2.5532705168       -0.8565183905
 C         -0.6461384003       -1.1639743957       -0.2875604879
 C          0.7533608310       -1.1445484454       -0.1900659563
 N          1.5311625814       -2.2745627454       -0.3502368773
 C          2.6869534648       -2.3377080995       -1.1223434543
 C          3.3270073916       -1.3371885760       -1.8333859016
 C          4.4513966494       -1.6846892991       -2.5597714521
 C          4.9262499690       -2.9931131790       -2.5837409529
 C          4.2878619297       -3.9935581068       -1.8771917444
 C          3.1595486551       -3.6663152817       -1.1377166945
 C          2.2798313566       -4.4296773633       -0.2929189185
 C          2.2722809431       -5.7556264478        0.1163485019
 C          1.3055852832       -6.1656801672        1.0139288588
 C          0.3772728158       -5.2634250427        1.5237599227
 C          0.3668902028       -3.9383108320        1.1281759923
 C          1.2998735132       -3.5337406327        0.1867672222
 N          1.4041155890       -0.0068068571       -0.0031788354
 C          0.7671604603        1.1387629159        0.1836749345
 N          1.5593859336        2.2583963084        0.3466742069
 C          1.3482306110        3.5208915428       -0.1904260183
 C          0.4223618461        3.9401083935       -1.1325074511
 C          0.4535386713        5.2651330892       -1.5273765881
 C          1.3949436460        6.1529064578       -1.0159396596
 C          2.3539924772        5.7278833994       -0.1171380020
 C          2.3408237066        4.4017796203        0.2915088483
 C          3.2064150734        3.6253782980        1.1389940948
 C          4.3371210344        3.9353668324        1.8824414865
 C          4.9565781866        2.9257848409        2.5927985054
 C          4.4608469350        1.6251227192        2.5687838964
 C          3.3342634827        1.2946418416        1.8378158885
 C          2.7133482593        2.3042661748        1.1227402702
 C         -0.6318565834        1.1756795959        0.2806496096
 Cl        -1.4753209575        2.5762178440        0.8485103193
 C         -1.3524652723        0.0100815267       -0.0029402979
 N         -2.7429665253        0.0174673295       -0.0007567448
 C         -3.5538738313       -0.7700163752        0.7971772592
 C         -3.2017773512       -1.6734562509        1.7861410961
 C         -4.2213253987       -2.3162774054        2.4627077664
 C         -5.5585238479       -2.0566222503        2.1742998976
 C         -5.9130334946       -1.1332965113        1.2101797454
 C         -4.9058045194       -0.4781832648        0.5147645106
 C         -4.9030918859        0.5313851393       -0.5094840490
 C         -5.9070519513        1.1952967972       -1.2013161466
 C         -5.5478890477        2.1166077720       -2.1655928624
 C         -4.2094748976        2.3657683544       -2.4575167308
 C         -3.1931567308        1.7137678737       -1.7849010999
 C         -3.5496537291        0.8120656529       -0.7959445117
 H          2.9673021028       -0.3215151502       -1.8074582286
 H          4.9736652816       -0.9226748933       -3.1187854611
 H          5.8076591897       -3.2250418900       -3.1626932200
 H          4.6541570198       -5.0086996421       -1.8962391976
 H          3.0154143142       -6.4455108717       -0.2532552020
 H          1.2791916409       -7.1937147142        1.3426784300
 H         -0.3469790048       -5.6013736016        2.2498426533
 H         -0.3389798159       -3.2456550351        1.5578992648
 H         -0.2939225024        3.2584743688       -1.5628623795
 H         -0.2646253169        5.6146373266       -2.2540405458
 H          1.3846313784        7.1814501682       -1.3440725289
 H          3.1070009085        6.4062757487        0.2538839364
 H          4.7195903910        4.9445077495        1.9020076285
 H          5.8393067168        3.1443708481        3.1750437040
 H          4.9680547215        0.8557852476        3.1315717832
 H          2.9581978978        0.2849102823        1.8118758577
 H         -2.1671830908       -1.8613755859        2.0302441047
 H         -3.9751562865       -3.0306548838        3.2342065797
 H         -6.3270674090       -2.5796704349        2.7234712148
 H         -6.9501367985       -0.9187409364        1.0016245381
 H         -6.9452085128        0.9891152414       -0.9897568953
 H         -6.3137565893        2.6467321982       -2.7117207286
 H         -3.9598256212        3.0795403173       -3.2284388236
 H         -2.1577885888        1.8941903676       -2.0313683936
  71
       -120.95558884
 Cl        -1.5314968740       -2.5098523835       -0.8189547707
 C         -0.6292788043       -1.1466142120       -0.2511564043
 C          0.7737064383       -1.0996623214       -0.3328100714
 N          1.5247666787       -2.2101770428       -0.6626007628
 C          2.5747167235       -2.2401675009       -1.5756781307
 C          3.1563522500       -1.2045855777       -2.2850419883
 C          4.1694006054       -1.5197265316       -3.1724842961
 C          4.5938400386       -2.8327486489       -3.3538021805
 C          4.0197847991       -3.8684482441       -2.6423369528
 C          3.0047073921       -3.5729634742       -1.7429094094
 C          2.2246501031       -4.3772774972       -0.8402439796
 C          2.2415591689       -5.7266906716       -0.5169770540
 C          1.3962130129       -6.1793727606        0.4773820855
 C          0.5687469286       -5.2975234363        1.1655541637
 C          0.5349676443       -3.9499031652        0.8565322759
 C          1.3389513757       -3.4999060985       -0.1786965232
 N          1.4275127446        0.0347334387       -0.1271287353
 C          0.7942555620        1.1316187832        0.2524163808
 N          1.5673010384        2.2713426833        0.4494851986
 C          2.3613885532        2.8772653009       -0.5078892421
 C          2.4857596552        2.5838675136       -1.8552692906
 C          3.3304430723        3.3755218811       -2.6108209341
 C          4.0189476135        4.4454875756       -2.0448715166
 C          3.8674118209        4.7639448469       -0.7093829630
 C          3.0283642035        3.9788993342        0.0701759085
 C          2.6218901349        4.0270796156        1.4487238477
 C          2.9451219058        4.8604880570        2.5110985760
 C          2.3787799059        4.6086800143        3.7452036389
 C          1.5165208897        3.5314760798        3.9320926922
 C          1.1820047819        2.6861477570        2.8904724769
 C          1.7226202471        2.9555462551        1.6432947904
 C         -0.5892888802        1.1487298682        0.4611120017
 Cl        -1.3983618176        2.5771765587        0.9995448274
 C         -1.3224930180       -0.0093772833        0.1743720438
 N         -2.7095572995       -0.0196173678        0.2704015282
 C         -3.4516418524       -0.8562868734        1.0850944058
 C         -3.0176765725       -1.7935817374        2.0077872671
 C         -3.9784060696       -2.4848714550        2.7217823119
 C         -5.3361969390       -2.2397956887        2.5343581091
 C         -5.7709023987       -1.2861549433        1.6346428263
 C         -4.8242615059       -0.5829403526        0.9019927511
 C         -4.9072531786        0.4606941086       -0.0841373917
 C         -5.9675476291        1.1212419098       -0.6898947675
 C         -5.6901845084        2.0775329662       -1.6470437769
 C         -4.3785940810        2.3660220838       -2.0150220406
 C         -3.3062955782        1.7203449928       -1.4279454959
 C         -3.5811868970        0.7817967291       -0.4466770155
 H          2.8468395718       -0.1856045912       -2.1298451935
 H          4.6435359674       -0.7276512945       -3.7325263126
 H          5.3862995990       -3.0405500226       -4.0571518951
 H          4.3514922126       -4.8866235965       -2.7773935197
 H          2.9118103253       -6.4020185585       -1.0263805203
 H          1.3919438441       -7.2257068778        0.7437929595
 H         -0.0557557210       -5.6699444012        1.9636758354
 H         -0.0859864256       -3.2748213631        1.4238652939
 H          1.9311079107        1.7727438170       -2.3018210958
 H          3.4532020789        3.1641341912       -3.6627115541
 H          4.6708273874        5.0406742716       -2.6666381913
 H          4.3850855799        5.6070997455       -0.2778015405
 H          3.6285385912        5.6842457105        2.3713657134
 H          2.6132283801        5.2478690094        4.5832199006
 H          1.1024970350        3.3494102054        4.9127143889
 H          0.5271000412        1.8429367146        3.0493652572
 H         -1.9657635790       -1.9735714066        2.1715085856
 H         -3.6688907418       -3.2273290974        3.4421874607
 H         -6.0569821508       -2.8003538319        3.1106141598
 H         -6.8233826491       -1.0861991374        1.5028552417
 H         -6.9853193995        0.8852497545       -0.4188412249
 H         -6.5004386550        2.6050199506       -2.1277542625
 H         -4.1940684377        3.1065070157       -2.7789478683
 H         -2.2929344971        1.9386320233       -1.7297465709
