  71
       -120.95860744
 Cl        -1.5073583728       -2.5532705168       -0.8565183905
 C         -0.6461384003       -1.1639743957       -0.2875604879
 C          0.7533608310       -1.1445484454       -0.1900659563
 N          1.5311625814       -2.2745627454       -0.3502368773
 C          2.6869534648       -2.3377080995       -1.1223434543
 C          3.3270073916       -1.3371885760       -1.8333859016
 C          4.4513966494       -1.6846892991       -2.5597714521
 C          4.9262499690       -2.9931131790       -2.5837409529
 C          4.2878619297       -3.9935581068       -1.8771917444
 C          3.1595486551       -3.6663152817       -1.1377166945
 C          2.2798313566       -4.4296773633       -0.2929189185
 C          2.2722809431       -5.7556264478        0.1163485019
 C          1.3055852832       -6.1656801672        1.0139288588
 C          0.3772728158       -5.2634250427        1.5237599227
 C          0.3668902028       -3.9383108320        1.1281759923
 C          1.2998735132       -3.5337406327        0.1867672222
 N          1.4041155890       -0.0068068571       -0.0031788354
 C          0.7671604603        1.1387629159        0.1836749345
 N          1.5593859336        2.2583963084        0.3466742069
 C          1.3482306110        3.5208915428       -0.1904260183
 C          0.4223618461        3.9401083935       -1.1325074511
 C          0.4535386713        5.2651330892       -1.5273765881
 C          1.3949436460        6.1529064578       -1.0159396596
 C          2.3539924772        5.7278833994       -0.1171380020
 C          2.3408237066        4.4017796203        0.2915088483
 C          3.2064150734        3.6253782980        1.1389940948
 C          4.3371210344        3.9353668324        1.8824414865
 C          4.9565781866        2.9257848409        2.5927985054
 C          4.4608469350        1.6251227192        2.5687838964
 C          3.3342634827        1.2946418416        1.8378158885
 C          2.7133482593        2.3042661748        1.1227402702
 C         -0.6318565834        1.1756795959        0.2806496096
 Cl        -1.4753209575        2.5762178440        0.8485103193
 C         -1.3524652723        0.0100815267       -0.0029402979
 N         -2.7429665253        0.0174673295       -0.0007567448
 C         -3.5538738313       -0.7700163752        0.7971772592
 C         -3.2017773512       -1.6734562509        1.7861410961
 C         -4.2213253987       -2.3162774054        2.4627077664
 C         -5.5585238479       -2.0566222503        2.1742998976
 C         -5.9130334946       -1.1332965113        1.2101797454
 C         -4.9058045194       -0.4781832648        0.5147645106
 C         -4.9030918859        0.5313851393       -0.5094840490
 C         -5.9070519513        1.1952967972       -1.2013161466
 C         -5.5478890477        2.1166077720       -2.1655928624
 C         -4.2094748976        2.3657683544       -2.4575167308
 C         -3.1931567308        1.7137678737       -1.7849010999
 C         -3.5496537291        0.8120656529       -0.7959445117
 H          2.9673021028       -0.3215151502       -1.8074582286
 H          4.9736652816       -0.9226748933       -3.1187854611
 H          5.8076591897       -3.2250418900       -3.1626932200
 H          4.6541570198       -5.0086996421       -1.8962391976
 H          3.0154143142       -6.4455108717       -0.2532552020
 H          1.2791916409       -7.1937147142        1.3426784300
 H         -0.3469790048       -5.6013736016        2.2498426533
 H         -0.3389798159       -3.2456550351        1.5578992648
 H         -0.2939225024        3.2584743688       -1.5628623795
 H         -0.2646253169        5.6146373266       -2.2540405458
 H          1.3846313784        7.1814501682       -1.3440725289
 H          3.1070009085        6.4062757487        0.2538839364
 H          4.7195903910        4.9445077495        1.9020076285
 H          5.8393067168        3.1443708481        3.1750437040
 H          4.9680547215        0.8557852476        3.1315717832
 H          2.9581978978        0.2849102823        1.8118758577
 H         -2.1671830908       -1.8613755859        2.0302441047
 H         -3.9751562865       -3.0306548838        3.2342065797
 H         -6.3270674090       -2.5796704349        2.7234712148
 H         -6.9501367985       -0.9187409364        1.0016245381
 H         -6.9452085128        0.9891152414       -0.9897568953
 H         -6.3137565893        2.6467321982       -2.7117207286
 H         -3.9598256212        3.0795403173       -3.2284388236
 H         -2.1577885888        1.8941903676       -2.0313683936
