  43
        -65.04285473
 C         -2.4029161198        3.6014768422       -0.2592422538
 C         -1.0241520059        3.6547811330       -0.4024181703
 C         -0.2824228877        2.4869019853       -0.3799343791
 C         -0.8960266566        1.2536026016       -0.2233652312
 C         -2.2895267101        1.2042448581       -0.0899829267
 C         -3.0337645124        2.3842263071       -0.1058021313
 N         -2.9244907752       -0.0072661516        0.0498745846
 C         -2.2835018931       -1.2154220880       -0.0915646171
 C         -3.0221653740       -2.3988616726       -0.1093809373
 C         -2.3855387938       -3.6128957916       -0.2648568692
 C         -1.0065777212       -3.6593798186       -0.4079678146
 C         -0.2703204518       -2.4879307404       -0.3834596139
 C         -0.8897185637       -1.2578166142       -0.2248662149
 C         -0.0625822928        0.0000999208       -0.1213687382
 C          0.6714011480        0.0010996746        1.2121655088
 C          0.1517126509        0.0094954310        2.4674219276
 C          1.0262383371        0.0097301545        3.5689410972
 C          2.4241641273        0.0014000698        3.3713493153
 C          2.9714969636       -0.0060676372        2.1239816871
 C          2.1046748238       -0.0043142294        0.9849281481
 C          2.3552054567       -0.0022945807       -0.3759760624
 C          3.5719042558       -0.0003334024       -1.1299090641
 C          3.5050055476        0.0096256362       -2.4919480405
 C          2.2715106188        0.0172881079       -3.1742525817
 C          1.0597349844        0.0138000437       -2.4559137235
 C          1.0965881154        0.0033893808       -1.0981203970
 H         -2.9859444555        4.5100640660       -0.2695340876
 H         -0.5288870744        4.6055346848       -0.5255289732
 H          0.7919073113        2.5257792987       -0.4814123954
 H         -4.1085437755        2.3323096312        0.0005568256
 H         -3.9316965035       -0.0099070213        0.1217232259
 H         -4.0971590831       -2.3522085943       -0.0029375878
 H         -2.9643636178       -4.5242270602       -0.2768088560
 H         -0.5068936967       -4.6076018491       -0.5329109058
 H          0.8041542448       -2.5216748102       -0.4854890998
 H         -0.9177504436        0.0144852627        2.6300894593
 H          0.6277963831        0.0162124545        4.5708212221
 H          3.0654218706        0.0016145930        4.2415530968
 H          4.0409752376       -0.0116905944        1.9765609238
 H          4.5181589060       -0.0060425474       -0.6109685340
 H          4.4152232942        0.0124915219       -3.0752566076
 H          2.2558288314        0.0257029593       -4.2523799942
 H          0.1183558567        0.0204745382       -2.9878102696
  43
        -65.04268530
 C         -2.4044111297        3.6084172806       -0.2433177992
 C         -1.0254601432        3.6656230259       -0.1051471626
 C         -0.2900393929        2.4952446567       -0.0451961722
 C         -0.9083534094        1.2563993173       -0.1216780028
 C         -2.2994279444        1.2042714919       -0.2685702664
 C         -3.0388559970        2.3865800879       -0.3270341038
 N         -2.9393769552       -0.0086795046       -0.3552360920
 C         -2.2863150778       -1.2170347464       -0.3095107895
 C         -3.0099912751       -2.4037379225       -0.4360661121
 C         -2.3630414561       -3.6210797645       -0.3905345859
 C         -0.9882059657       -3.6692219668       -0.2142740815
 C         -0.2680713578       -2.4943330361       -0.0895399439
 C         -0.8978967774       -1.2599784339       -0.1376106569
 C         -0.0771563960        0.0012271250       -0.0189533679
 C          0.7171592475        0.0153874105        1.2768009615
 C          0.2544784946        0.0547846998        2.5526400339
 C          1.1784810807        0.0844875572        3.6152344031
 C          2.5649475078        0.0739606981        3.3555230247
 C          3.0569076963        0.0331349259        2.0853383855
 C          2.1392743114        0.0064967660        0.9859869952
 C          2.3287422608       -0.0129632590       -0.3839406249
 C          3.5101850255       -0.0436802012       -1.1930434101
 C          3.3812857933       -0.0658576924       -2.5496369563
 C          2.1176253397       -0.0555835890       -3.1761131352
 C          0.9398920837       -0.0270023071       -2.4037700803
 C          1.0389633210       -0.0079615013       -1.0498575415
 H         -2.9847861209        4.5178512434       -0.2853758943
 H         -0.5263973182        4.6201951519       -0.0417521861
 H          0.7832548257        2.5355806264        0.0661148239
 H         -4.1133059200        2.3320089748       -0.4350455202
 H         -3.9420109891       -0.0124262586       -0.4727615407
 H         -4.0814338221       -2.3561773574       -0.5732733859
 H         -2.9303012577       -4.5338615150       -0.4938423096
 H         -0.4796620176       -4.6201544579       -0.1765545002
 H          0.8026384651       -2.5281142875        0.0458681498
 H         -0.8065541881        0.0673202269        2.7616071632
 H          0.8246919960        0.1176676209        4.6331584808
 H          3.2449398674        0.1003497392        4.1956432488
 H          4.1184391733        0.0265065688        1.8906711643
 H          4.4789318162       -0.0525794324       -0.7173991106
 H          4.2637364742       -0.0910002388       -3.1738705436
 H          2.0532426688       -0.0726559828       -4.2523099978
 H         -0.0246268057       -0.0202286935       -2.8929359177
