  43
  -64.7601003391000       0.504405124692046      !
 C         -2.4281884383        3.5744252770       -0.4341158258
 C         -1.0428854400        3.6314754210       -0.4734900471
 C         -0.3017366404        2.4701603434       -0.3459397604
 C         -0.9206136420        1.2405377253       -0.1788501367
 C         -2.3190317327        1.1875072831       -0.1472649349
 C         -3.0640160552        2.3608960530       -0.2744759218
 N         -2.9607122839       -0.0175407093        0.0089439892
 C         -2.3029157767       -1.2173095168        0.1376357646
 C         -3.0326566394       -2.4006041410        0.2612481503
 C         -2.3809199796       -3.6092226807        0.3917046576
 C         -0.9946961139       -3.6513847540        0.4045037373
 C         -0.2686532340       -2.4799941745        0.2811250321
 C         -0.9037609547       -1.2550856671        0.1437952528
 C         -0.0788975233       -0.0003123538       -0.0094302003
 C          0.8677042015        0.1773152091        1.1663719773
 C          0.5642134356        0.3938586020        2.4718961165
 C          1.6109957193        0.5538515811        3.4005612497
 C          2.9553799889        0.4902366810        2.9781467039
 C          3.2886262563        0.2726511972        1.6748186290
 C          2.2436650144        0.1106727239        0.7088201419
 C          2.2644303093       -0.0951512863       -0.6587264789
 C          3.3382825344       -0.2498739922       -1.5937666581
 C          3.0447047629       -0.4523985684       -2.9091558746
 C          1.7139519211       -0.5097088528       -3.3730827087
 C          0.6392980510       -0.3620896701       -2.4743536379
 C          0.9029543777       -0.1626396844       -1.1575537785
 H         -3.0123945663        4.4775424860       -0.5276928164
 H         -0.5430132258        4.5792421251       -0.6005987179
 H          0.7769758131        2.5109196410       -0.3723164609
 H         -4.1434248448        2.3064904376       -0.2427930635
 H         -3.9701757362       -0.0238128948        0.0156873822
 H         -4.1129888732       -2.3577748874        0.2500725254
 H         -2.9534935455       -4.5200437604        0.4822097110
 H         -0.4821737716       -4.5952557358        0.5081412537
 H          0.8106858723       -2.5094022805        0.2887608948
 H         -0.4633817515        0.4483526686        2.8046021165
 H          1.3840948872        0.7281484431        4.4400677082
 H          3.7328149755        0.6202775781        3.7181279119
 H          4.3184435809        0.2259247635        1.3553170528
 H          4.3579021540       -0.2075736350       -1.2425209443
 H          3.8443704556       -0.5728167241       -3.6268279244
 H          1.5186427949       -0.6703565761       -4.4212634833
 H         -0.3777700073       -0.4083685172       -2.8391229067
  43
  -64.7600836872000       0.495594875307954      !
 C         -2.4286267089        3.5653892774       -0.4490205776
 C         -1.0778648792        3.5807787923       -0.7645151329
 C         -0.3350402768        2.4168233145       -0.6749128712
 C         -0.9207918348        1.2239428483       -0.2799671045
 C         -2.2873887339        1.2113424720        0.0271543227
 C         -3.0319295836        2.3882179277       -0.0572225613
 N         -2.8964548663        0.0380876681        0.4053209866
 C         -2.2735051893       -1.1864688765        0.3513994683
 C         -3.0048485806       -2.3517235504        0.5833235913
 C         -2.3879235393       -3.5839326727        0.5169219158
 C         -1.0366243617       -3.6674119681        0.2149336923
 C         -0.3068115556       -2.5131072841       -0.0084993534
 C         -0.9063102415       -1.2647738425        0.0567049007
 C         -0.0769397449       -0.0153804749       -0.1117615346
 C          0.8144411280        0.1550785873        1.1102982538
 C          0.4519592953        0.3388912272        2.4066913786
 C          1.4544890975        0.4755679487        3.3836218683
 C          2.8178279013        0.4223239397        3.0206056166
 C          3.2087074531        0.2401259191        1.7284864048
 C          2.2092316802        0.1002749529        0.7134413083
 C          2.2916323982       -0.0838594315       -0.6555490486
 C          3.4071064956       -0.1992565526       -1.5450296991
 C          3.1742918112       -0.3714883734       -2.8776430397
 C          1.8666672586       -0.4392846325       -3.3997825195
 C          0.7517364245       -0.3302472558       -2.5456963672
 C          0.9542135936       -0.1586368713       -1.2135469294
 H         -3.0115829559        4.4719701284       -0.5109227589
 H         -0.6045325012        4.4997559667       -1.0740524509
 H          0.7187113783        2.4275366128       -0.9104702620
 H         -4.0854870562        2.3652462706        0.1849488410
 H         -3.8873258754        0.0584129255        0.5986965484
 H         -4.0589384335       -2.2770135101        0.8123021114
 H         -2.9608204612       -4.4808908161        0.6984733241
 H         -0.5527751665       -4.6303332262        0.1593232025
 H          0.7472591657       -2.5744266478       -0.2348163925
 H         -0.5896337367        0.3797998052        2.6959099444
 H          1.1813995109        0.6218451679        4.4163787847
 H          3.5605811259        0.5309825381        3.7984083660
 H          4.2521801853        0.2006381293        1.4543447456
 H          4.4096808617       -0.1476819292       -1.1489054387
 H          4.0064220509       -0.4590227829       -3.5622235210
 H          1.7193728815       -0.5755803375       -4.4592178847
 H         -0.2475848735       -0.3826702642       -2.9552838649
