74
 energy: -115.970709008194 gnorm: 0.000068743039 xtb: 6.7.1 (edcfbbe)
C           -4.33766466102800       -3.38766105761834       -1.11307890084757
C           -4.29987934692367       -2.38306533591756        0.05441291115115
C           -5.19876052041358       -2.87117957819133        1.20689911337959
C           -4.82708862446735       -1.04912605199301       -0.42472682670321
C           -6.12476884464154       -0.95907436985111       -0.90817922223265
C           -6.68074594228223        0.24848977707443       -1.29298883118401
C           -5.94180871342262        1.41370593783701       -1.15446242965821
C           -4.65281232973248        1.35535743327154       -0.67774144682971
C           -4.05983738643615        0.12410600664032       -0.34920952752702
N           -2.74790181433204        0.09918198930114        0.08791856400578
C           -2.00043080957501        1.28572937962368        0.09158311098832
C           -1.75717537435793        1.98446250232026       -1.13119729820636
C           -0.93753346147355        3.06738413441752       -1.14235883886154
C           -0.36959853670382        3.55542794310153        0.06172343931601
S            1.13984275128581        4.44978846196584       -0.02127218163528
O            1.23142210786712        5.20931092212405       -1.24212912947099
O            1.41591220646403        5.11522815280183        1.22633602800355
C            2.08284428974796        2.94714801928554       -0.14708574370098
C            2.24010931052525        2.36750206695587       -1.41264366935616
C            2.64160179874694        1.06063052248146       -1.55454626435185
C            2.86511730606035        0.31718377181203       -0.39060705175347
C            2.67851657194077        0.88862477521610        0.89553686111744
C            2.28918828760078        2.20705107015936        1.02226367300070
C            2.93773709137943       -0.16165252183566        1.84550624953209
C            2.92099170319486       -0.21937926528939        3.23025884388448
C            3.23957115350655       -1.41704538602098        3.84711701906732
C            3.58686652487476       -2.53899662431096        3.09949249302607
C            3.60858009840456       -2.50632724119991        1.71617139581363
C            3.26202118280486       -1.31530971558314        1.09190227150734
N            3.21437915200147       -1.00912925147581       -0.25334981769071
C            3.49513920267515       -1.89863643478968       -1.29756426070412
C            4.41082970137119       -1.54878255595350       -2.28818348357344
C            4.69057268975765       -2.43465603226205       -3.31063637382191
C            4.06812035944774       -3.67251691979967       -3.35445992669468
C            3.15441607945417       -4.01971974157062       -2.37153834723256
C            2.86214639808406       -3.13938391694988       -1.34759742312648
C           -0.67153910218745        2.89982333959379        1.29094421851172
C           -1.44837612944103        1.78589530147426        1.30148811722105
C           -2.15351154513965       -1.07672761953199        0.51171653807296
C           -0.79334722600350       -1.07975635401616        0.86865303773740
C           -0.19023640299321       -2.22143059241189        1.34315429148532
C           -0.91674456476910       -3.39840895482148        1.44136752093077
C           -2.23616375251426       -3.41925210699098        1.02445028673599
C           -2.87483679103153       -2.28166291384980        0.55176533459831
H           -5.34780988315295       -3.49442237613406       -1.49743143168967
H           -3.69646178603710       -3.04120424005743       -1.92124146712634
H           -3.98999179097474       -4.36588825519849       -0.79419700216249
H           -4.86047246397567       -3.83356409192260        1.57964603505406
H           -6.22820577158945       -2.97627152436691        0.87730413751832
H           -5.17152725306788       -2.15574133805637        2.02641573044388
H           -6.72801604599199       -1.85067946042256       -0.98229255095474
H           -7.69079684702441        0.28204589099803       -1.67065411143262
H           -6.37592225057778        2.36865435451514       -1.40709230139432
H           -4.09257144167437        2.26512803037478       -0.53619889375797
H           -2.18201343976058        1.59126703348252       -2.04323217603279
H           -0.68661693182058        3.58065767724826       -2.05672745374312
H            2.04261500280070        2.98730000808039       -2.27263277537401
H            2.76370596873977        0.61613028629606       -2.53032247223804
H            2.15245460595384        2.68091959322878        1.97946327524397
H            2.67040011511292        0.65536269093445        3.80979270212862
H            3.23105965827448       -1.48312328943999        4.92455118790900
H            3.84853400904309       -3.45435703288715        3.60904152941718
H            3.89374953892551       -3.37622407572827        1.14413618483819
H            4.91014260002893       -0.59305984234346       -2.23561458377111
H            5.40497514142071       -2.16185921370574       -4.07286955153870
H            4.29340856577894       -4.36352000547286       -4.15229284958113
H            2.66107125950980       -4.97972323368969       -2.40738598059069
H            2.13040479171128       -3.39453624023774       -0.59528323330761
H           -0.27915696742010        3.33065373678392        2.19722480620996
H           -1.70009060022052        1.28628463442137        2.22620506006517
H           -0.21157083295113       -0.17865491464323        0.76044929295327
H            0.84778102184059       -2.19470895956040        1.63564762115295
H           -0.45403942233109       -4.29730981947981        1.81860001795275
H           -2.77639699678768       -4.35225252029165        1.06966847525135
