74
 energy: -116.075836047559 gnorm: 0.000066266145 xtb: 6.7.1 (edcfbbe)
C           -5.82252509464203       -2.94697705341692       -1.65686288362907
C           -5.45630674600677       -2.19103355104091       -0.36666942613567
C           -6.24267570072101       -2.76235452280721        0.82721289302469
C           -5.82871210446513       -0.73033301425858       -0.53927340160853
C           -7.14893008822174       -0.38271351586871       -0.79072645471110
C           -7.54102203244153        0.93176794215134       -0.96468589669546
C           -6.59381368259183        1.93731448846430       -0.89345580581913
C           -5.27485827003910        1.62055055179945       -0.64538342183640
C           -4.88000588240531        0.29321116686223       -0.45995315663968
N           -3.54643694996193        0.00788491478157       -0.21394096656104
C           -2.61051435128955        1.06933737786485       -0.10304161531652
C           -1.81057409515388        1.40185113913131       -1.19321549119420
C           -0.81442755314625        2.34936039845541       -1.04747991812983
C           -0.63910120007599        2.96456134471912        0.17796878831727
S            0.86251224253783        3.92241509931831        0.43148397656705
O            1.06979105207097        4.82979603993519       -0.66556581764493
O            0.84134663242986        4.46428673961861        1.76440705531133
C            2.05984051529301        2.58899838345840        0.31935344830311
C            3.15086580868738        2.71033984604143       -0.53192021275539
C            4.03680552595469        1.66319984126748       -0.69771711675675
C            3.78967181853475        0.48627564030360        0.00034521823745
C            2.65875370663872        0.35754902322714        0.84753593085574
C            1.79574998372773        1.42904646109281        1.01687437054311
C            2.66870080179880       -0.98940200504441        1.34184395297997
C            1.83093728202055       -1.70034353548894        2.19191632796436
C            2.14042807812893       -3.01620879458464        2.47136766529217
C            3.27547437808160       -3.61644611102081        1.92916997952007
C            4.12234751164794       -2.92914364757080        1.08079689534272
C            3.80256277774598       -1.61396658335290        0.77446559805313
N            4.47015583042526       -0.70773355021231       -0.02807634998084
C            5.64572833816256       -0.96533525953600       -0.75412339041955
C            6.74002811536107       -0.11515757076434       -0.63211253343470
C            7.89337457258338       -0.37035921270468       -1.35098491338513
C            7.96700610202884       -1.47412722903027       -2.18445456267765
C            6.87892847924011       -2.32270637719423       -2.30300519963272
C            5.71756675101798       -2.07039690572308       -1.59597311960065
C           -1.46197994493416        2.68230585269250        1.25111909253323
C           -2.45900824684278        1.73306832710566        1.11017848138950
C           -3.08993467459352       -1.28964845556153       -0.03399418360042
C           -1.73606282136131       -1.52026984326888        0.22985258818308
C           -1.25590241796652       -2.80046772277996        0.41148476314707
C           -2.12238401086888       -3.87589497479862        0.33867958297346
C           -3.46294951834187       -3.64944193055997        0.08639421861282
C           -3.97307892868560       -2.37218662099471       -0.10197423139644
H           -5.58107346685431       -4.00273401081545       -1.57017681120823
H           -6.88372251006971       -2.85703379152189       -1.87136507008461
H           -5.26635880453577       -2.53537226470027       -2.49706128888837
H           -6.01888652507026       -3.81557774699801        0.97198615103312
H           -7.31293504178114       -2.66053466812480        0.67097178015395
H           -5.97600132628855       -2.22653776206086        1.73628412741166
H           -7.89894520227426       -1.15653430060659       -0.85469200307881
H           -8.57652935804505        1.16663081858279       -1.15781196662154
H           -6.87834915376589        2.96942386186354       -1.03265010614505
H           -4.53642685008038        2.40658168460420       -0.59672094026947
H           -1.95612888967957        0.88887338995824       -2.13187851701648
H           -0.15899151266181        2.61021055942075       -1.86374688312931
H            3.27735585511217        3.64024283618372       -1.06315054555521
H            4.87976385221526        1.75087748216870       -1.36545680880683
H            0.93651901380651        1.36209888088061        1.66550165194243
H            0.95962036412553       -1.22980021595958        2.62121319160166
H            1.50038926741799       -3.59012239485250        3.12444077938126
H            3.49959991614344       -4.64261601648783        2.17962140614434
H            5.00684019301796       -3.39891362191000        0.67850765107003
H            6.68446670442334        0.73222551921291        0.03469900305227
H            8.74071057127324        0.29161102598881       -1.25357749439227
H            8.87044253685059       -1.67234575465311       -2.74072348703771
H            6.93098464429024       -3.18158983001272       -2.95531419000624
H            4.85912494092211       -2.71673869240525       -1.70144163544601
H           -1.28924430572802        3.19441920765659        2.18512757412875
H           -3.10231336482067        1.47694703014572        1.93869426292264
H           -1.05087745980309       -0.68833915519685        0.29206969411724
H           -0.20532809743160       -2.95155220705687        0.61181471220253
H           -1.75992495755454       -4.88273084989027        0.47919307089790
H           -4.12780165774881       -4.49845948483072        0.03660376045752
