74
 energy: -115.969577150292 gnorm: 0.000099633618 xtb: 6.7.1 (edcfbbe)
C           -5.65703892553957       -2.99426227775988       -1.64416669193261
C           -5.31565571040219       -2.20837406667700       -0.36371185054561
C           -6.10855651476204       -2.77091534346489        0.83170896909119
C           -5.70764546718322       -0.76006677994407       -0.56509872577150
C           -7.02717720018187       -0.43156715484812       -0.84099025863540
C           -7.43052019120952        0.87802667491199       -1.03062116672745
C           -6.49792931583051        1.90201190546772       -0.94586257601302
C           -5.18233758410298        1.60803045759631       -0.67251842113092
C           -4.76976457244150        0.28142663588173       -0.47781289138394
N           -3.44637763747207        0.02261118023624       -0.20346275171897
C           -2.53092002580299        1.10773308746019       -0.07905155901485
C           -1.79379925346793        1.53390647264267       -1.19286784263358
C           -0.83008335811629        2.50143371431057       -1.03887208042926
C           -0.60264656679437        3.05734048263668        0.22012527120264
S            0.88076583274883        4.00441254025396        0.48041800229190
O            1.09874676165098        4.92120940609482       -0.60979605985177
O            0.86206695861338        4.53872525137857        1.81947839658113
C            2.07515752861281        2.66974602439268        0.36573756238907
C            3.10049533675377        2.73117966682900       -0.57741075941254
C            3.92069715426786        1.62000426125421       -0.78769179833563
C            3.68386334766501        0.48561585585422       -0.03651290915932
C            2.60069607173884        0.41155432467915        0.90541606497512
C            1.80571281972407        1.53837770327301        1.10854563011537
C            2.57899998760841       -0.91624648131235        1.40850403797771
C            1.76537104329790       -1.58793232104334        2.32566641944938
C            2.05274785994273       -2.91618441936134        2.61910642597016
C            3.12417827925767       -3.57448204772970        2.03618675309173
C            3.94940106307065       -2.92242954965992        1.10710826180668
C            3.65096184748397       -1.61425141457895        0.78502182672578
N            4.30738419392906       -0.74754003545565       -0.07950797829514
C            5.43022370052433       -1.05617372720962       -0.83684743867811
C            6.52152138030079       -0.17758573089447       -0.86858874790331
C            7.63739008880905       -0.48965168174023       -1.61399178206270
C            7.68993941043097       -1.67057859011828       -2.34471030295965
C            6.60711169314765       -2.54115999124755       -2.32169352425035
C            5.48643278557149       -2.24453779981580       -1.57659972720676
C           -1.36903428421164        2.67017419279731        1.32035740100348
C           -2.33325614069470        1.70177454019209        1.17360978288307
C           -2.97252772139379       -1.25759954857825       -0.01053556695905
C           -1.61002423915823       -1.45756802124999        0.26112960648068
C           -1.10913024642920       -2.72324002909975        0.46097329662477
C           -1.95854050995621       -3.81836580057745        0.39613110642476
C           -3.30213525971335       -3.62670645741378        0.12851439388865
C           -3.83650162381370       -2.36288467416872       -0.07901328796326
H           -5.40505998202393       -4.04471967960112       -1.53183089002744
H           -6.71642686646420       -2.92081446977694       -1.87190681937906
H           -5.09541412629050       -2.59373165380737       -2.48580594711398
H           -5.86728289713613       -3.81681055336370        0.99765871186792
H           -7.17773695710505       -2.69090907992993        0.65816199172642
H           -5.86383182558227       -2.21405060578021        1.73404107166233
H           -7.76718539472856       -1.21401169844296       -0.91079483460830
H           -8.46510759294069        1.09830066337748       -1.24324081106928
H           -6.79900044647524        2.92765670002021       -1.09294190805011
H           -4.45242431046703        2.39932521031737       -0.60554170801744
H           -1.98006081009054        1.07788723363808       -2.15382227234797
H           -0.22936066945349        2.83929598236769       -1.86824541401755
H            3.22653644113238        3.63827265125265       -1.14264664255090
H            4.69715552941169        1.65000281716237       -1.53651951847541
H            0.99251719691174        1.53124838814061        1.81627351348912
H            0.93742684419212       -1.08104473596676        2.79562508402537
H            1.43061932657577       -3.44521145197619        3.32689967575481
H            3.33687723929312       -4.59859401912749        2.29924614984006
H            4.79887942446511       -3.43355549639310        0.68170624410597
H            6.49193610818087        0.72079259665851       -0.27112366962624
H            8.47984964325938        0.18568604247181       -1.62144025985610
H            8.56578417192992       -1.90958015105883       -2.92738631194707
H            6.63807372989472       -3.45342536964688       -2.89881981220261
H            4.62927671348273       -2.90054565988437       -1.58914516644434
H           -1.17187608939374        3.14058620416507        2.27069538480228
H           -2.92910069168601        1.37409354967208        2.01274342857586
H           -0.94773417618737       -0.60799739167584        0.31229921593957
H           -0.05878713174101       -2.85428156637790        0.67246361057608
H           -1.57632994155760       -4.81499678646802        0.55359012939099
H           -3.94734157341901       -4.49066815989471        0.08297153428211
