74
 energy: -116.074934697836 gnorm: 0.000130311879 xtb: 6.7.1 (edcfbbe)
C           -6.85584273300277        2.26083314880104        0.47407119999717
C           -6.05358649168877        1.40805321048756       -0.52576267800599
C           -6.66185635969403        1.52498991680968       -1.93521761740429
C           -6.11865800262460       -0.04338886555492       -0.09001680410283
C           -7.35133650634741       -0.67755111970518       -0.01094443901584
C           -7.47211977159621       -2.00439684859627        0.35714920797590
C           -6.33183521265853       -2.73291338303746        0.64337258054787
C           -5.09474800223021       -2.12756528026512        0.57444471123926
C           -4.97280897808761       -0.77966410150952        0.22549584171357
N           -3.71441522234213       -0.19488702830984        0.17195888352862
C           -2.58035079707132       -0.97003500840147        0.52502134735014
C           -2.31421339173910       -1.23929259717180        1.86438344102300
C           -1.20802121856927       -1.99676859370926        2.20629847359905
C           -0.38046014288954       -2.47710537836097        1.21052586263004
S            1.07862209636072       -3.43885852511495        1.64098705471096
O            1.08945897644242       -3.61901309981973        3.06914208356466
O            1.11518061907667       -4.60980666936143        0.80461011878339
C            2.41513857334721       -2.34742474459455        1.16645816154828
C            2.63286041609979       -1.20971432791019        1.93606423635901
C            3.63597194752052       -0.32060842460549        1.60739711240313
C            4.41478722936543       -0.60544083871359        0.49010089487246
C            4.16900492820927       -1.75203949743348       -0.30892372760124
C            3.15549703484890       -2.63293229328592        0.04044271418028
C            5.12007192635512       -1.71135108513412       -1.38298449031099
C            5.38440828879493       -2.55198120700418       -2.45714741847044
C            6.41614510203665       -2.22248942000417       -3.31230912002237
C            7.18740484503038       -1.08097843333890       -3.10029709939538
C            6.94311434610534       -0.23017309184530       -2.03953789296768
C            5.89339960617846       -0.54454308063441       -1.18828838695965
N            5.45304055277008        0.11141184128390       -0.05372924034981
C            6.00094427423374        1.29439166841165        0.47165312929840
C            6.39662737197825        1.34706840199990        1.80434934223428
C            6.93623302787728        2.51259388719185        2.31663121581837
C            7.09303067360579        3.62474874171511        1.50609399395601
C            6.70298678316844        3.57110796444176        0.17826994400778
C            6.15361933231380        2.41302077522369       -0.34095700935888
C           -0.63198142362835       -2.21527744529614       -0.12311928473551
C           -1.73781101049461       -1.46099523077874       -0.46959776506913
C           -3.53532879818477        1.12636054479495       -0.21019446348039
C           -2.25045164514121        1.67724113356390       -0.21826874804999
C           -2.04156402511610        2.98590215512479       -0.59980127793868
C           -3.11455425647529        3.77407745701928       -0.97382562702377
C           -4.38848070673636        3.23802728079322       -0.94458656303607
C           -4.62797377132254        1.92456557395938       -0.56430929342872
H           -6.84977190446506        3.30793801789053        0.18435401689630
H           -7.88870067669341        1.92801102324581        0.52634740437364
H           -6.41737591916369        2.17683064725055        1.46673156225727
H           -6.09206332684535        0.91693600116654       -2.63537986429981
H           -6.64436635296722        2.55448806162056       -2.28186744699113
H           -7.69242268939240        1.18150351332942       -1.94329448483221
H           -8.24838363798712       -0.12419093033831       -0.24423793315904
H           -8.44642161780238       -2.46540868725004        0.41112658547800
H           -6.40095945088433       -3.77466583162747        0.91806610020842
H           -4.20967933230102       -2.70683671498459        0.78785980253838
H           -2.97994755481873       -0.85743884127579        2.62386625371863
H           -0.97395631368405       -2.23175705751177        3.23285849541278
H            2.01009517474936       -1.04916154280011        2.80180328668920
H            3.80584310323893        0.56843563140349        2.19480361621767
H            2.94287144938044       -3.52622880347602       -0.52457802293263
H            4.79639316846106       -3.44381988011225       -2.60921785911481
H            6.63966481902941       -2.86011919133079       -4.15420873007046
H            7.99766342835388       -0.85858354767336       -3.77853744360975
H            7.55676278321014        0.64215234981879       -1.87358181604186
H            6.29193129487638        0.47042098985920        2.42591718810285
H            7.24331334066500        2.54917675770913        3.35109786885067
H            7.51896701390710        4.53124138511714        1.90839091640913
H            6.82055300247090        4.43732716210450       -0.45557620187521
H            5.83032000878984        2.37192792128079       -1.37037121113922
H            0.02979158737461       -2.61819002933242       -0.87364151509663
H           -1.95914711119881       -1.24517056040153       -1.50410906540300
H           -1.40819771448914        1.07319215825374        0.08335120505948
H           -1.03913383346511        3.38754752617483       -0.60044615337479
H           -2.96426633600041        4.79886959670403       -1.27718487858480
H           -5.21852588664068        3.86837979302749       -1.22544328034093
