  98
       -151.03097306
 C        -10.5270120757        3.5418892605        1.4004813712
 C        -10.4234856265        2.1846644434        1.1452049207
 C         -9.1959329491        1.6246668188        0.8457668117
 C         -8.0483231496        2.4135981129        0.7926004380
 C         -6.7451790340        1.8195901362        0.4687561546
 C         -6.3778001535        0.5742509764        0.9763902682
 C         -5.1556956740        0.0121371577        0.6741302090
 C         -4.2617855959        0.6758800026       -0.1665997808
 N         -3.0260904487        0.1211847119       -0.4985514965
 C         -1.9059230586        0.9594955326       -0.6234890164
 C         -1.6706393202        1.9744393589        0.3016382094
 C         -0.5403812064        2.7592474631        0.1998963232
 C          0.3738313190        2.5690148395       -0.8335341849
 C          1.5749814802        3.4119330560       -0.9315876059
 C          1.9256826337        4.0084609375       -2.1396658908
 C          3.0455841274        4.8143851862       -2.2258745155
 C          3.8392977303        5.0255853009       -1.1113546106
 C          3.5007979107        4.4339092878        0.0937765246
 C          2.3752647307        3.6363856619        0.1855990104
 C          0.1203404188        1.5693186243       -1.7702967527
 C         -0.9981652606        0.7697277408       -1.6647993096
 C         -2.8400520029       -1.2599186256       -0.5944552115
 C         -3.8549119341       -2.0908832106       -1.0955471111
 C         -3.6836706312       -3.4557102808       -1.1796922356
 C         -2.4675275197       -4.0127696304       -0.8000275203
 C         -1.9464312621       -5.3497661094       -0.7438014543
 C         -2.4711039415       -6.5935947706       -1.0679606407
 C         -1.6739136380       -7.7104448288       -0.9106090747
 C         -0.3643568971       -7.5976308027       -0.4514424541
 C          0.1817709236       -6.3703191486       -0.1232717693
 C         -0.6212650338       -5.2484432058       -0.2562056285
 N         -0.3241638079       -3.9189314758       -0.0216752803
 C          0.8951219909       -3.3710901576        0.3887120625
 C          1.5447551946       -3.8718530706        1.5396460952
 C          2.6868036931       -3.2864552759        2.0074893182
 C          3.2274032111       -2.1679777479        1.3421663192
 N          4.2525351676       -1.4789496985        1.8715503027
 C          4.7430107984       -0.4594741676        1.2074243833
 C          5.7108837121        0.3895183611        1.9077887384
 C          6.6330011520       -0.1830001322        2.7804488026
 C          7.5412934024        0.6122226795        3.4530663453
 C          7.5283953795        1.9859795518        3.2747205623
 C          6.5960107602        2.5634033778        2.4274813336
 C          5.6908315144        1.7738817219        1.7451872207
 C          4.2981180888       -0.1830552233       -0.1307161939
 C          5.0272629888        0.6930128800       -1.0520705985
 C          6.4189447516        0.7713441078       -1.0345625310
 C          7.0784859058        1.5835359840       -1.9367223334
 C          6.3637702271        2.3162956664       -2.8706145367
 C          4.9828072125        2.2206141550       -2.9112743674
 C          4.3177545395        1.4133435732       -2.0097785862
 N          3.2204857307       -0.7637004792       -0.5998903026
 C          2.6200763376       -1.7157143009        0.1372637236
 C          1.4358627705       -2.3173865995       -0.3127465897
 C         -1.4344170560       -3.1649334945       -0.3457083213
 C         -1.6209012864       -1.8033398904       -0.2024490376
 C         -4.6226804792        1.9245412521       -0.6759524412
 C         -5.8401623484        2.4854545670       -0.3567072865
 C         -8.1655124052        3.7781548669        1.0499279427
 C         -9.3934381366        4.3358579219        1.3526193589
 H        -11.4865804337        3.9785865995        1.6352997085
 H        -11.3051755220        1.5606509323        1.1770118407
 H         -9.1254533709        0.5683623968        0.6299643046
 H         -7.0476709773        0.0535028029        1.6448857943
 H         -4.8800915100       -0.9433978530        1.0956814759
 H         -2.3744384633        2.1328370071        1.1059349995
 H         -0.3653586739        3.5396219925        0.9263405627
 H          1.3016427503        3.8527238958       -3.0082567638
 H          3.2986128652        5.2852900548       -3.1649873524
 H          4.7167693728        5.6512279592       -1.1804015896
 H          4.1133490712        4.6024279797        0.9680229735
 H          2.1180865650        3.1678547930        1.1253577582
 H          0.8161201346        1.4065657328       -2.5804778028
 H         -1.1801318610       -0.0131977790       -2.3867791500
 H         -4.7836864804       -1.6426263948       -1.4148048639
 H         -4.4812682839       -4.0833838251       -1.5468786549
 H         -3.4813383594       -6.6802505493       -1.4385435114
 H         -2.0650788337       -8.6869779654       -1.1545876543
 H          0.2399088481       -8.4873636975       -0.3533325245
 H          1.2044444833       -6.2911226312        0.2136694115
 H          1.0993025541       -4.7032356096        2.0652885869
 H          3.1749950032       -3.6371885234        2.9034050506
 H          6.6286966104       -1.2541822337        2.9124782254
 H          8.2611505837        0.1608283614        4.1200575774
 H          8.2393822655        2.6068723783        3.7996305565
 H          6.5758448096        3.6357833031        2.2984131831
 H          4.9578364292        2.2267095475        1.0935736371
 H          6.9851131012        0.1824805958       -0.3279481105
 H          8.1569692883        1.6400680852       -1.9153505920
 H          6.8844894546        2.9516534709       -3.5718030626
 H          4.4233939138        2.7755433995       -3.6490732371
 H          3.2429338973        1.3305615389       -2.0249993688
 H          0.9781826461       -1.9488900763       -1.2172394634
 H         -0.8474611453       -1.1726837463        0.2075930934
 H         -3.9397050752        2.4460744087       -1.3307422343
 H         -6.1089710876        3.4424355219       -0.7793753582
 H         -7.2825957441        4.4007254014        1.0324144216
 H         -9.4669524929        5.3948532689        1.5546582881
