70
 energy: -106.678133249656 gnorm: 0.000062307078 xtb: 6.7.1 (edcfbbe)
C            0.73516510808590        2.19089013510937       -3.32602804569082
C           -0.53455436579089        1.90944666990220       -2.85639387362905
C           -0.70884988746827        1.03855950439184       -1.78333245699827
C           -2.05349906946022        0.74878328185616       -1.26387628586883
C           -3.11682412826694        0.50844135292494       -2.13106945640938
C           -4.38123145461521        0.24289956418679       -1.64515869475807
C           -4.60992863568421        0.21289040239380       -0.27238253886498
N           -5.89317807481228       -0.05055266981571        0.22569712038974
C           -6.57244210719741        0.71684295351960        1.15057962734348
C           -6.19778388050152        1.90772773910008        1.75619263881827
C           -7.08911028389741        2.49221258521428        2.63521932159852
C           -8.32884246584938        1.91644920219301        2.90492015829467
C           -8.71608567077681        0.74358971339816        2.28850389666296
C           -7.83755856647800        0.13693882609242        1.40045540943484
C           -7.91327342259634       -1.04309275929649        0.58568157354997
C           -8.88032506407600       -2.02441363759642        0.41188968326648
C           -8.61819503708016       -3.06516033240184       -0.45626227805357
C           -7.40465344261350       -3.14265148001671       -1.13632078433511
C           -6.42716606471157       -2.17877784003882       -0.98049240875765
C           -6.69394391194489       -1.11832608629708       -0.12633424884882
C           -3.55295625892484        0.44935863670098        0.60200296973313
C           -2.29141895391506        0.71344529014927        0.10837910575382
C            0.41045873697236        0.45092907880859       -1.20468227733818
C            1.69022095766913        0.72470367136324       -1.67346707405230
C            2.86048063727766        0.08716846429120       -1.05265466862820
C            2.84774326766280       -1.27218291511091       -0.73190346104246
C            3.95757604704149       -1.86038718974072       -0.18005693403553
C            5.12391128774046       -1.13385808047645        0.10014889490651
C            6.30838739125175       -1.77164084846895        0.64297840561851
C            6.36573353947494       -3.15704164110102        0.85202746484675
C            7.49366955944970       -3.77098704951307        1.34075432604754
C            8.61841481669535       -3.01004795961471        1.63230064745769
C            8.58901442142962       -1.65022996981900        1.43565678373257
C            7.44808347130175       -0.99677807288427        0.94925728079288
C            7.42202229851605        0.44154244669110        0.75040885807919
C            8.50312823056445        1.25297344804844        1.12254827746251
C            8.49216175876830        2.61284410823848        0.92493717137264
C            7.38345730271807        3.21326309037186        0.34275265664645
C            6.30465569278234        2.44263183800047       -0.01888922820644
C            6.28824816150849        1.05414661142804        0.17426713954064
C            5.12982584553549        0.25073249214621       -0.17572107803902
C            3.99650032956378        0.82018357603896       -0.76701069554034
C            1.84334576078914        1.60762495798801       -2.73981456149598
H            0.86199062980591        2.87089640372353       -4.15601257303576
H           -1.39517994739076        2.38224296576269       -3.30627835133681
H           -2.94668002831608        0.51919695715792       -3.19771736983919
H           -5.20244878507612        0.07059408897277       -2.32496917404640
H           -5.24634250770583        2.37035462120140        1.54044344062468
H           -6.82010707591264        3.41850237587933        3.12140113181013
H           -8.99644093134813        2.40347134322678        3.60014690678485
H           -9.68294640269355        0.30547532740707        2.48563575729442
H           -9.81444664086088       -1.97237637445396        0.95071598700607
H           -9.35751583513157       -3.83774055407289       -0.60706340858210
H           -7.22228997355580       -3.97716242508193       -1.79745136746529
H           -5.48296423294576       -2.25631769733800       -1.49846945828072
H           -3.72587138137050        0.41328115763850        1.66738536984126
H           -1.48027285460012        0.90872807330836        0.79444922697444
H            0.28384591417713       -0.23051009702808       -0.37567782955085
H            1.97067797436300       -1.86542541567529       -0.94564010807224
H            3.91019925155877       -2.91448012132313        0.03960521117401
H            5.51426056764750       -3.77572687453712        0.62023935983891
H            7.50685568732717       -4.84064312501473        1.48983059899085
H            9.51349528082959       -3.48387188111166        2.00756444559208
H            9.48140880258904       -1.08872183243174        1.65888904055647
H            9.37292964764075        0.81736130514293        1.58635909284651
H            9.34045429145271        3.21066338238203        1.22412211072010
H            7.36448185608704        4.28114063185658        0.18202260424343
H            5.45327263498591        2.94019184885617       -0.45380599883652
H            3.97758583185194        1.87254927237012       -0.99933504176701
H            2.83166135043561        1.81723253484179       -3.12209696423353
