70
 energy: -106.581521409152 gnorm: 0.000046703367 xtb: 6.7.1 (edcfbbe)
C            0.66550454605129        4.77091001170227        0.09140000310848
C           -0.53723542217430        4.07367368007442        0.10376582354439
C           -0.52591041603937        2.67289838110785       -0.00116876003450
C           -1.78678157549453        1.92006167720147        0.00210693563851
C           -2.90216704619422        2.38942815968797       -0.69036222561798
C           -4.08334734938374        1.67651975804936       -0.70120781522724
C           -4.18269881311419        0.47681867958688       -0.00106956959414
N           -5.38046995541082       -0.24946303921390       -0.00636077096360
C           -6.63554063431575        0.25772054910724        0.26375339855664
C           -7.00849126711501        1.53968968547849        0.64277184106621
C           -8.34870182948402        1.77759561777068        0.88094856175450
C           -9.30029821953624        0.76795262534954        0.75644556225463
C           -8.93200871419058       -0.51587138954075        0.40446514328718
C           -7.59140606043714       -0.77939744150055        0.15987103649036
C           -6.86664601057540       -1.96774711026283       -0.19605369657443
C           -7.24713535900748       -3.27791176176797       -0.45156844939005
C           -6.27344134915574       -4.19369394061147       -0.79940842965511
C           -4.93813186678713       -3.81270138802516       -0.90940754229426
C           -4.53511040735509       -2.51460809621141       -0.66046905849709
C           -5.50522860819571       -1.59575221802654       -0.28524945581016
C           -3.07847153170254        0.00489316313294        0.70435860236831
C           -1.89670355268906        0.71624965454400        0.69750131146570
C            0.67815557589975        2.01101216892339       -0.11361616846006
C            1.91869060093155        2.69463806701545       -0.14394839335495
C            3.15586165854437        2.00972315314240       -0.27149479334983
C            4.35399354398306        2.67639788510581       -0.69154464510151
C            5.54014459758376        2.03676861030966       -0.74451256975042
C            5.68947647530737        0.65617506078836       -0.35253039952690
C            6.93042717173621        0.05298879732341       -0.13132838680483
C            8.15569920833035        0.78170580609510       -0.22422360236391
C            9.35520222512357        0.21414828207762        0.08707117607381
C            9.41151009757897       -1.11696245028567        0.51897618792967
C            8.24888810139063       -1.86251686643938        0.59248213496586
C            7.00783538612360       -1.33300205895106        0.25905203557759
C            5.79905320516853       -2.13497494752902        0.26469977363871
C            5.83963333947865       -3.52555760354705        0.42052995282946
C            4.69217233780504       -4.29436663335208        0.39208818635324
C            3.46644687570502       -3.69054417597226        0.18054365138110
C            3.40252397976312       -2.31882099631364        0.01111839038745
C            4.54354651951836       -1.51915952436737        0.07017349972271
C            4.46407254438332       -0.07468323463043       -0.11119767509070
C            3.27973830630060        0.60304957526231       -0.03295821400979
C            1.86292166019719        4.11345095584031       -0.03472422485448
H            0.65432003188475        5.84736445844299        0.18839199637879
H           -1.47205824341081        4.59949834128347        0.22038508018642
H           -2.83114436646005        3.30846242910384       -1.25305940616948
H           -4.93046299610907        2.03311661432256       -1.26814121713281
H           -6.27631958646165        2.32413987715873        0.76056370893211
H           -8.66478165994430        2.76785149446630        1.17404673586136
H          -10.33841701682194        0.99473985386303        0.94839622416688
H           -9.66728279826133       -1.30222695307680        0.32436670778370
H           -8.28431111243571       -3.56933971771636       -0.38298648763063
H           -6.54786143992883       -5.21869433447358       -0.99947721646623
H           -4.20154637106662       -4.54730038733096       -1.19963034602004
H           -3.50078093508212       -2.22483785397354       -0.76742965759752
H           -3.16141835161085       -0.91027574459168        1.27165928557547
H           -1.05321686452303        0.35098607420441        1.26471089851897
H            0.65961656281229        0.94100282011705       -0.24909401489950
H            4.29444420170231        3.70282519298845       -1.01925279767705
H            6.40423646420359        2.57232004671115       -1.10413050316991
H            8.13258374226655        1.81456026583041       -0.53078140246093
H           10.26552888881427        0.79145598661784        0.01445162474203
H           10.35763889068840       -1.55935799563205        0.79079434886479
H            8.32636519826724       -2.88315455624265        0.93280250254401
H            6.78432649795789       -4.02793483064188        0.55204816419610
H            4.75888900738459       -5.36482885385790        0.51983581091084
H            2.56421641427909       -4.28246185956174        0.13619810442614
H            2.44145770146286       -1.87237369370286       -0.19054182466821
H            2.39319810608785        0.06942282973061        0.26500247087557
H            2.77886088335142        4.68163765160148       -0.00864791993495
