70
 energy: -106.678304158527 gnorm: 0.000063468665 xtb: 6.7.1 (edcfbbe)
C            0.59961350668537        4.63279080143942       -0.81903397186776
C           -0.58712028745701        3.93170673934415       -0.71090701681260
C           -0.57768542584959        2.58735337588245       -0.34566007261749
C           -1.83517386881826        1.83658167416329       -0.22035384046164
C           -2.85344593093040        1.99294129539323       -1.15852778053937
C           -4.03283478104353        1.28450045273419       -1.05015178760105
C           -4.22889873065296        0.41191717220402        0.01695207898570
N           -5.42786505313385       -0.30249803478803        0.13586015469224
C           -6.69896265960316        0.23221195180958        0.06288631053872
C           -7.09579386252757        1.55313705066227       -0.08932291082966
C           -8.45091866570317        1.82213322968623       -0.10531684830034
C           -9.39609174498671        0.80836710694117        0.03552349194632
C           -9.00735548692701       -0.50425636391503        0.21259670008172
C           -7.65068227570229       -0.79978020457738        0.23164831351087
C           -6.90730902216266       -2.01538663178117        0.40952770606560
C           -7.27530059711414       -3.34076982487596        0.59996775686792
C           -6.28257210177518       -4.29303164962355        0.71471389289406
C           -4.93789578707687       -3.93978461162309        0.62589498602026
C           -4.54700600035840       -2.62812767867309        0.43697335861247
C           -5.53959561755281       -1.66271669665942        0.34637628774760
C           -3.22055311625963        0.25577543385876        0.96431109452582
C           -2.03649161077693        0.95351160074741        0.83847900281203
C            0.64181090761214        1.96604105603720       -0.10024100821971
C            1.84075283116076        2.66132035648051       -0.21265931171193
C            3.12189851761969        1.98612221923634        0.03931547398314
C            4.13767109411767        2.62098071624439        0.75803286879290
C            5.33176493413501        1.98183321297887        0.97631397785933
C            5.58386563919028        0.68836039031894        0.49612832652711
C            6.85942357232461        0.03059127971591        0.70786192901021
C            7.89810139889556        0.65315682861323        1.41504733138901
C            9.11668002451964        0.04587820812976        1.59973074487274
C            9.33985305882029       -1.21985652908166        1.07333865891131
C            8.33636858077997       -1.85519897723991        0.38211233359685
C            7.08126338668376       -1.26224315838693        0.18521472902717
C            6.01945657223204       -1.94816621817123       -0.52995894364258
C            6.19206151015399       -3.24617420279191       -1.03150312727087
C            5.18829205161578       -3.90736276554340       -1.69751923525183
C            3.96045235072187       -3.28526580721918       -1.88155037329726
C            3.76464555800239       -2.01308151720279       -1.40037368968864
C            4.77392129858922       -1.31288306287149       -0.72455819064092
C            4.56014607490345        0.03306433427364       -0.22176196201851
C            3.35277435800081        0.70810331951150       -0.43354354201368
C            1.80735730752940        4.00699072378855       -0.57144703126517
H            0.58298022818626        5.67612950979043       -1.09923574336970
H           -1.52819512891024        4.43127043094849       -0.88780240207513
H           -2.70578784622994        2.65563001286470       -1.99864106439230
H           -4.80308969876050        1.38976901363793       -1.79961480881468
H           -6.37162425721481        2.34868155980818       -0.18043047693013
H           -8.78492428049302        2.84222911572914       -0.22615264037439
H          -10.44619859417712        1.05944692904560        0.01464167995322
H           -9.73896568411645       -1.28818563622004        0.33837285807920
H           -8.31791470282719       -3.61613046214869        0.65208009668207
H           -6.54700053796329       -5.32906724954138        0.86604003824643
H           -4.18359079256957       -4.70909606140580        0.70292719327527
H           -3.50276567319624       -2.36782922549634        0.35107260210188
H           -3.37885439873394       -0.40186516132324        1.80606126531727
H           -1.26734701210302        0.83620853479160        1.58776804997306
H            0.65799892064873        0.92343708961262        0.18331236362617
H            3.97448018156088        3.61158647175880        1.15656028505813
H            6.08711451910031        2.50865066814476        1.53614202154097
H            7.75608503987911        1.63633661425967        1.83293574820355
H            9.89678805084285        0.55214350207995        2.14898042996314
H           10.29599853002705       -1.70401156934647        1.20707249385100
H            8.54076806835679       -2.83649749879798       -0.01362959904905
H            7.13038215240524       -3.75890471154531       -0.89774680942081
H            5.35351435550847       -4.90693329776296       -2.07178108327772
H            3.16235262972687       -3.79774197839373       -2.39821736917297
H            2.79891470120298       -1.56001399574262       -1.55425532883306
H            2.56795793492588        0.24373878344503       -1.00801893821466
H            2.73189502265302        4.55516558642872       -0.67699778939169
