  70
       -106.67822606
 C          0.5997389613        4.6184717144       -0.8074833068
 C         -0.5879174946        3.9200814699       -0.6932643939
 C         -0.5800009754        2.5776261215       -0.3210891377
 C         -1.8395162461        1.8300910660       -0.1953496452
 C         -2.8482903128        1.9765872263       -1.1452602699
 C         -4.0294223790        1.2707187247       -1.0401639366
 C         -4.2372947184        0.4118910190        0.0358643315
 N         -5.4383927354       -0.2998342541        0.1497509246
 C         -6.7075128270        0.2347722947        0.0476792020
 C         -7.1002479743        1.5545351638       -0.1240843359
 C         -8.4545751915        1.8244391739       -0.1676864921
 C         -9.4031063879        0.8126436118       -0.0353568757
 C         -9.0188909986       -0.4985357987        0.1613023497
 C         -7.6630473243       -0.7948313155        0.2087109269
 C         -6.9240374953       -2.0090125898        0.4124645753
 C         -7.2967296673       -3.3320979256        0.6093754066
 C         -6.3072350125       -4.2837698298        0.7531813888
 C         -4.9608020411       -3.9323057245        0.6868010817
 C         -4.5652633404       -2.6229814070        0.4912753749
 C         -5.5550492885       -1.6578994623        0.3714295748
 C         -3.2389925147        0.2668703446        0.9955963438
 C         -2.0522086487        0.9607859785        0.8724245091
 C          0.6383639077        1.9549804021       -0.0736325458
 C          1.8383184546        2.6473460577       -0.1934946671
 C          3.1209650662        1.9732955301        0.0544012708
 C          4.1399513585        2.6131867353        0.7639974336
 C          5.3368482636        1.9777363636        0.9770583864
 C          5.5899537115        0.6844376629        0.4972741281
 C          6.8669681368        0.0292871422        0.7079351132
 C          7.9000648249        0.6484662628        1.4261701826
 C          9.1197480807        0.0432688733        1.6111813840
 C          9.3491180815       -1.2174412209        1.0751868857
 C          8.3503582479       -1.8501021609        0.3747171961
 C          7.0946291476       -1.2587706268        0.1762627171
 C          6.0379645243       -1.9414569946       -0.5494992653
 C          6.2208112026       -3.2299854204       -1.0713745704
 C          5.2225504292       -3.8883430304       -1.7482878299
 C          3.9901717428       -3.2727664896       -1.9233342340
 C          3.7844582766       -2.0096232410       -1.4226975452
 C          4.7878152465       -1.3124478068       -0.7352068739
 C          4.5660014376        0.0268585121       -0.2181841632
 C          3.3531469058        0.6956801369       -0.4189382592
 C          1.8065636872        3.9910526740       -0.5599328878
 H          0.5847711761        5.6602616718       -1.0934989686
 H         -1.5286600847        4.4197970781       -0.8715848699
 H         -2.6910943124        2.6288917047       -1.9917474717
 H         -4.7916699562        1.3671074891       -1.7989687221
 H         -6.3736818901        2.3486078477       -0.2088152922
 H         -8.7853542150        2.8435847767       -0.3041679545
 H        -10.4524478579        1.0641944535       -0.0787279707
 H         -9.7534841506       -1.2807812447        0.2802450191
 H         -8.3404060397       -3.6062691032        0.6438768312
 H         -6.5753752441       -5.3180517508        0.9097182538
 H         -4.2087183280       -4.7012921495        0.7865226024
 H         -3.5193436890       -2.3644789001        0.4226224461
 H         -3.4071974761       -0.3792100106        1.8443219807
 H         -1.2902079028        0.8520133531        1.6302895324
 H          0.6526214418        0.9139700909        0.2160673967
 H          3.9768118642        3.6046440211        1.1602089943
 H          6.0943193061        2.5081722472        1.5304412073
 H          7.7520476281        1.6262682863        1.8543166090
 H          9.8955926422        0.5469815629        2.1686776310
 H         10.3062850920       -1.6996311522        1.2088333904
 H          8.5589603682       -2.8279792073       -0.0266651284
 H          7.1636239042       -3.7366623155       -0.9468597008
 H          5.3960136129       -4.8801322210       -2.1390724554
 H          3.1968212260       -3.7826012285       -2.4497323720
 H          2.8160753392       -1.5607171778       -1.5719183497
 H          2.5651935632        0.2271824024       -0.9856397607
 H          2.7321276181        4.5361635047       -0.6726008171
