141
 energy: -200.014395860450 gnorm: 0.000102671294 xtb: 6.7.1 (edcfbbe)
C            8.10536543576155        1.82486352705743        1.32114255528696
C            7.22306459362077        2.85660791350839        0.60402106277986
C            7.90477392486371        3.31865070997769       -0.69111462365729
C            7.07368215740811        4.07014621202805        1.52545648349867
C            5.89112106802818        2.20068843845982        0.27122204895394
C            4.67876967679845        2.68446415888382        0.76615120313997
C            3.47463502130374        2.04935567878769        0.52420695738897
C            3.49326851619078        0.88332491909414       -0.21680227510529
C            4.68641107698842        0.42172871050476       -0.80445587242223
C            5.87819289439795        1.07773751956426       -0.54797133122182
C            4.33548044329642       -0.74554862783931       -1.56904350699054
C            5.08396807279234       -1.63716681002611       -2.32341930648626
C            4.46590590083213       -2.72890781815272       -2.91153173462446
C            5.22639370967215       -3.75499817644698       -3.73874111169333
C            6.71318781358153       -3.41540322425669       -3.87456414069629
C            5.11162338392097       -5.12752225797269       -3.06002112357549
C            4.62225837616966       -3.81774674739380       -5.14836897294154
C            3.09002392544078       -2.90206901868775       -2.72030766602653
C            2.32128738585218       -2.03175436040831       -1.97359318837768
C            2.95062156107421       -0.94037326354915       -1.40186318384305
N            2.44272029404793        0.05086727366131       -0.57094415236057
C            1.23488790363637       -0.00378716406999        0.12386366847765
C            1.21943632623704       -0.09915105346112        1.52805869257752
N            2.41795465143956       -0.16940372414365        2.24973668978031
C            2.88625578501599        0.80417628335840        3.11661081325045
C            2.21902755199815        1.88830744295976        3.66398629878941
C            2.93668710617013        2.73923626776616        4.48357139139276
C            4.28495829359418        2.52092720939754        4.75315065961785
C            4.95371777160787        1.44325918630074        4.20683130310008
C            4.25492180308720        0.57495259033443        3.38019317280088
C            4.62629516969619       -0.59929968087942        2.64025982491562
C            5.80971821098462       -1.30908051693459        2.49484850603588
C            5.81024093840236       -2.43789622156517        1.69896724455940
C            4.64414391823274       -2.88479251629605        1.08448254529328
C            3.45350792043119       -2.19688444293843        1.21867701579065
C            3.46479396669438       -1.02912260061221        1.96397687125099
C            0.00551860619485       -0.11356724419495        2.20203359369378
C           -1.20436097563865       -0.05521734605499        1.52313964690114
N           -2.40687207436960       -0.06396489693762        2.24163363683811
C           -2.87748334065295       -1.12618465746220        2.99594785270852
C           -2.21099571108022       -2.26247876532159        3.42582646484650
C           -2.93094276229262       -3.19796158537073        4.14512771864082
C           -4.28076422442012       -3.01165911755781        4.43050370343423
C           -4.94883506403281       -1.88201413828266        4.00079997694669
C           -4.24776306375605       -0.92857259790657        3.27619107605411
C           -4.61797424085759        0.31803169112656        2.66533137725431
C           -5.80251263718219        1.03693164400432        2.59060232283722
C           -5.80210145443953        2.24429918240719        1.91991027118421
C           -4.63387395012641        2.75687093727232        1.36360448381490
C           -3.44194569618168        2.06135618754815        1.43004645041422
C           -3.45411314579007        0.82006948284287        2.04517591669180
C           -1.21124786811333        0.00063355925353        0.11667449570179
N           -2.41459115189982        0.02213571310596       -0.58763435465450
C           -2.91729693725200        1.09976306689572       -1.30741084018596
C           -2.28448046873487        2.24244028984095       -1.75766773590138
C           -3.04594964721252        3.19738407245644       -2.40831147253882
C           -4.41902493616855        3.05238316975213       -2.61359943279271
C           -5.25777365054750        4.11492022926754       -3.30960594090197
C           -4.42849223069894        5.30742952675575       -3.79373163693349
C           -5.94810814384849        3.49116339982162       -4.53053485595367
C           -6.31343050067361        4.63627520797507       -2.32376134406286
C           -5.04223138092179        1.90211271841439       -2.14582178561488
C           -4.30415977828991        0.92849947585050       -1.49578776211505
C           -4.65948093015043       -0.31493157055533       -0.86407960103707
C           -5.85290384488211       -0.99249018185059       -0.68402998637115
C           -5.87006350971430       -2.19889685164478        0.00671215820367
C           -7.20381185929802       -2.88574954947569        0.26048289973453
C           -7.05913279678790       -4.19188911981400        1.04604385127917
C           -7.87896152530964       -3.20458185637602       -1.08047849056016
C           -8.08980248717878       -1.93735531631902        1.08066887484564
C           -4.65998841751559       -2.73616436498435        0.44869997706160
C           -3.45400977841813       -2.08073225971731        0.28066406161259
C           -3.46855642851664       -0.84076551983540       -0.32853328614772
C            0.01391654609876        0.03518298026101       -0.56571800075299
C            0.01824382240060        0.11022262841143       -1.97879894295135
N            0.02196502121854        0.17045509028859       -3.12328866723143
H            9.06383347928125        2.26699430453159        1.58576942456988
H            8.28983238692442        0.95669866397149        0.69469042143867
H            7.61348402117883        1.48853102168520        2.23106212254534
H            8.85136498321392        3.80502908436966       -0.46451102686242
H            7.26920525544087        4.02782674337360       -1.21734331467657
H            8.10301271979464        2.48221268311997       -1.35530837160127
H            6.60408764947617        3.79012171778735        2.46584913177410
H            6.48544966215577        4.85256940091217        1.05159987375929
H            8.05761264933588        4.47900765525920        1.74739868569461
H            4.65548173080782        3.57745741093981        1.36753973795899
H            2.55252578397785        2.45568244491973        0.91359119230976
H            6.78816667374810        0.69815039430514       -0.98572167247727
H            6.14159111909670       -1.46205495054676       -2.42619979753695
H            6.85043472975064       -2.45389633649493       -4.36372093436203
H            7.20099280853785       -3.39518192796115       -2.90266691953910
H            7.20436978900457       -4.17423524095134       -4.48058296435578
H            5.53081829153389       -5.08561931130348       -2.05655269482868
H            5.65812489387772       -5.87558017644182       -3.63063730900471
H            4.07606197198333       -5.44725996086602       -2.98404487935284
H            4.67480854944154       -2.83983797844155       -5.62208923810994
H            5.17253668959412       -4.52912637148804       -5.76085634636703
H            3.58116218344076       -4.12625677048324       -5.12235022894794
H            2.59489350281393       -3.75138807537715       -3.16522059187117
H            1.26452570918757       -2.21272103646904       -1.84343458490951
H            1.17631245841717        2.07374105757427        3.45070573432598
H            2.44089381625653        3.59289310806721        4.92162455950263
H            4.81166841889061        3.20921884363475        5.39746867650073
H            6.00017160809829        1.27720445244519        4.41429303008060
H            6.70829975772567       -0.98567724627221        2.99776530429022
H            6.72408541235814       -2.99716933516269        1.56483793647475
H            4.66555505315202       -3.78613379531859        0.49073214588509
H            2.54768748402526       -2.56182748295513        0.75820931133672
H            0.00226999025233       -0.17157460246489        3.28022811852648
H           -1.16703752729628       -2.42262292290279        3.19860307098580
H           -2.43572293091402       -4.09346082788266        4.49047360886914
H           -4.80923302568317       -3.76622958803262        4.99411715011306
H           -5.99650309050782       -1.74060505961663        4.22006826795184
H           -6.70269110737298        0.65962362485315        3.05135126539899
H           -6.71649173983235        2.81292993494919        1.84047418657683
H           -4.65575565367409        3.71624427383356        0.86938115439907
H           -2.53457434212991        2.47538862283824        1.01645747268668
H           -1.22697178133988        2.40346799099849       -1.60862402589090
H           -2.53860427671099        4.08148696843652       -2.75646896674693
H           -3.94746642303446        5.81625061500966       -2.96147599584732
H           -3.67019887212345        4.99222869483410       -4.50654975574279
H           -5.08054392717023        6.02305326774389       -4.29086813483053
H           -6.53392122449983        4.24298502088163       -5.05548283705845
H           -6.61389179289772        2.68308196488089       -4.24125699296460
H           -5.20478601501434        3.09075542620304       -5.21655825878086
H           -6.93006268598512        5.39588162157346       -2.79987549684622
H           -5.82976343316078        5.07971009915819       -1.45567290198662
H           -6.96216047459144        3.83605995128788       -1.97858506425110
H           -6.10361887013758        1.75378331857184       -2.26982163592462
H           -6.76116355304653       -0.56548918955945       -1.07970419853398
H           -6.46977896280955       -4.91938571590648        0.49274736381248
H           -6.59295588449456       -4.01560919041658        2.01293472672658
H           -8.04429587787302       -4.62102406227344        1.21877013107551
H           -7.24109791616557       -3.85368678742175       -1.67677608540255
H           -8.07290516407876       -2.30113126513390       -1.65168715259413
H           -8.82712483736436       -3.71130189908607       -0.91265793451890
H           -9.04974681800493       -2.40494030202939        1.29054562295410
H           -8.27089923056253       -1.00606944051683        0.55143969623510
H           -7.60280701350406       -1.70230007422497        2.02435956575450
H           -4.63977034989582       -3.68965257779815        0.94879569539603
H           -2.53368336348013       -2.52899301131839        0.62571843463273
