141
 energy: -199.928330692181 gnorm: 0.000064847888 xtb: 6.7.1 (edcfbbe)
C            6.59958133852943        5.34541630840929       -0.29800804336194
C            5.13111960082151        5.42160874168389        0.12880901697188
C            4.44734364226552        6.51083257885249       -0.70974796778450
C            5.08630097042824        5.80265210531335        1.61598271795271
C            4.39517707017761        4.10579164903413       -0.06701067687650
C            3.03743413590011        4.03351083492387        0.27174401266693
C            2.29437229325670        2.87926857802391        0.13946885412552
C            2.92640789864635        1.75171734076144       -0.36230320686463
C            4.29589158426961        1.79557067978547       -0.70588282599750
C            5.02040430905990        2.96600153776051       -0.55693486086405
C            4.65178364403853        0.46782534450095       -1.13349148661007
C            5.83623931418707       -0.11638857822800       -1.54926710750407
C            5.85536043855874       -1.46226038823482       -1.89585705867801
C            7.13167178348339       -2.18621532123694       -2.29221652188192
C            7.38183383946626       -3.31325475518953       -1.27963741866551
C            6.97541722529410       -2.77368337140153       -3.70184918251986
C            8.35586594765826       -1.26662288270293       -2.29451140953243
C            4.65288957280300       -2.18057625254519       -1.87394547115277
C            3.45969466178971       -1.62224665290950       -1.46612999676314
C            3.47356331842748       -0.30285209618839       -1.04031157047197
N            2.44686703048302        0.47157790404491       -0.54488195398471
C            1.23745602230996       -0.03209648968190       -0.05728282179874
C            1.21776004821074       -1.10438635273389        0.81663045782199
N            2.42089397088468       -1.63760389271399        1.30755649348189
C            3.47421108762929       -0.89926546135096        1.80727089645248
C            3.49334775212429        0.42015411146063        2.23512674709819
C            4.69468402561628        0.93496458087534        2.68218290983020
C            5.84439269262408        0.15126743903057        2.73106111512735
C            5.81395208340352       -1.18267409879698        2.37011919691344
C            4.61978409110539       -1.72038228321172        1.91433026516027
C            4.21980377634199       -3.03031097882713        1.48091555577038
C            4.88616248373475       -4.23982560727230        1.35259193695975
C            4.19202877379138       -5.33089479062763        0.86511621517614
C            2.85171005666476       -5.22459860052818        0.50205684296713
C            2.16778271763783       -4.03011174812657        0.62084447780554
C            2.85539673041393       -2.93388958479493        1.12017404499282
C           -0.00225632933203       -1.65687909875181        1.26226416465377
C           -1.21991208161104       -1.08981124270131        0.83077191216744
N           -2.42412869301148       -1.59988879534633        1.34280084892639
C           -2.87994061369721       -2.89299350696490        1.18636636154844
C           -2.21545834134980       -4.00972715802750        0.70124984400319
C           -2.91890295604833       -5.19564307338938        0.61487341425781
C           -4.25599775622955       -5.27421886973180        0.99631433322804
C           -4.92714998459476       -4.16312707474022        1.47046836902758
C           -4.24097798802994       -2.96173120008209        1.56606410360904
C           -4.61595538720110       -1.63804667087225        1.97945328537529
C           -5.79591259115831       -1.07414062154637        2.44074919947585
C           -5.80174373703175        0.26642999498009        2.77751095243134
C           -4.64122389239512        1.03160193161921        2.69933993629267
C           -3.45380395698566        0.49052700832550        2.24617273212908
C           -3.45985968608755       -0.83661311311815        1.84242328165985
C           -1.23723014336831       -0.02255830856764       -0.05034682726308
N           -2.44590842398507        0.47912090308806       -0.54055935855505
C           -2.92148100396183        1.76436823079155       -0.38549972216727
C           -2.28675148063380        2.90132690867067        0.09126558817019
C           -3.02522112800779        4.06167265655902        0.19198253313487
C           -4.38125684410881        4.13169761280682       -0.15407176448351
C           -5.11054859724078        5.45667907623371       -0.00010408716038
C           -4.41591045874697        6.51672567340366       -0.86675285501006
C           -6.57714991619216        5.37658099100238       -0.43261829105273
C           -5.07106815903476        5.88095342176953        1.47540307956607
C           -5.01045913140681        2.98197856022768       -0.61487103238714
C           -4.29054359593436        1.80519698260221       -0.73198559477698
C           -4.65084540363338        0.46965604308968       -1.13051284174162
C           -5.83692092742379       -0.11974007389769       -1.53444533958283
C           -5.85968419320488       -1.47233454092028       -1.85372341324300
C           -7.13795644971477       -2.20136511789994       -2.23411392766851
C           -7.39100644593334       -3.30484939428484       -1.19657932768352
C           -6.98352621575186       -2.82072857910032       -3.63023292180322
C           -8.35962771253758       -1.27872544520589       -2.25701743995574
C           -4.65890357517466       -2.19291352257208       -1.81832547425937
C           -3.46429863299931       -1.62942333259034       -1.42190878530631
C           -3.47486055762434       -0.30213594014228       -1.02132066847882
C            0.00128180054997        0.55170682200350       -0.52437972981770
C            0.00433821348585        1.47854452368311       -1.54289774787951
N            0.00904776390786        2.30378235287669       -2.36191664896051
H            7.07207820450363        6.31339636318260       -0.14323994120768
H            6.68713193597760        5.09415609014795       -1.35238953947815
H            7.14203985521267        4.60991504932607        0.29172325528723
H            4.45104293211385        6.23149330610860       -1.76103865675592
H            4.97699286565038        7.45493153546928       -0.60015123302949
H            3.41643595393046        6.66167727429191       -0.40317342103233
H            5.55649060073285        5.02640339560257        2.21652038016086
H            4.06483366042851        5.93049431844903        1.96291882571129
H            5.62074172692090        6.73609921743435        1.77941789007632
H            2.54084685056729        4.91018161875246        0.65772720939726
H            1.25249183559300        2.86222512261577        0.41760701548213
H            6.06483150564611        2.96463885301528       -0.81987789304065
H            6.72639040621907        0.48836079303176       -1.59084699034202
H            7.48832210644233       -2.89608485315432       -0.28051792254882
H            6.55831269622359       -4.02181393191306       -1.26361544085869
H            8.29400118523225       -3.84999890707433       -1.53218393659048
H            6.17165927514830       -3.50297987699010       -3.74311802100024
H            7.89665927300095       -3.26672379242102       -4.00512487175657
H            6.75562453525816       -1.98274519785374       -4.41584346523182
H            8.53014867207406       -0.84473320399429       -1.30740866737390
H            9.23789133565261       -1.83869885081545       -2.57554495148741
H            8.23702680880386       -0.45909455721664       -3.01321308520539
H            4.64459521911674       -3.21508394195367       -2.17979971416991
H            2.54584585062279       -2.19640832088139       -1.48377029951652
H            2.59908034349522        1.02433282425369        2.22640229658307
H            4.73924420252462        1.96579531553691        3.00023218962682
H            6.76795449513590        0.59101183692212        3.07706171364148
H            6.69852225680651       -1.79728819650601        2.44422525148135
H            5.92706639831583       -4.32309156403272        1.62573251030247
H            4.69374548934440       -6.28124691804019        0.75822504174556
H            2.33735605107577       -6.09285681526144        0.11718188810212
H            1.13319244867967       -3.95023642357199        0.32470422323219
H           -0.00180397642338       -2.41095751852797        2.02972167660278
H           -1.18327278897295       -3.95279816271573        0.39196030785581
H           -2.42240395203694       -6.07924968160573        0.24166753791460
H           -4.77334161177535       -6.21869263062216        0.91491415480230
H           -5.96549105877178       -4.22491965474276        1.75864227032033
H           -6.68847203027934       -1.67384557943699        2.53751844633812
H           -6.71394598846581        0.72634209218083        3.12737759373882
H           -4.66617287706830        2.06858691621506        2.99901488016945
H           -2.55076489690298        1.08078755427934        2.21523162483296
H           -1.24569677246725        2.88785335656360        0.37234238171674
H           -2.52583939029635        4.94565135775840        0.55705715674936
H           -4.94064705045316        7.46663792813943       -0.78813846067687
H           -3.38578306090193        6.67071380699131       -0.55916422041141
H           -4.41557670356909        6.20634274562617       -1.90930892830280
H           -7.04455526760655        6.35151460866814       -0.30922723233161
H           -7.12732187586336        4.66210248292150        0.17551934837019
H           -6.66047492646099        5.09477249120555       -1.47960252447238
H           -5.60072650198751        6.82191670295440        1.60849124156568
H           -4.05060038853840        6.01300213142807        1.82369148351322
H           -5.54891919898771        5.12538774860259        2.09593522171317
H           -6.05412494051792        2.97830370600186       -0.88080899805267
H           -6.72550135296290        0.48635777689817       -1.58830422847870
H           -6.56880293593829       -4.01438106275421       -1.16387662555969
H           -7.49739613905526       -2.86520543024519       -0.20713322144173
H           -8.30400758904650       -3.84542319258116       -1.43766252128693
H           -6.18245558066549       -3.55370631538700       -3.65504879172582
H           -6.76084418153230       -2.04675759006131       -4.36170980472677
H           -7.90647210166966       -3.31716399118361       -3.92257465349850
H           -9.24308688991240       -1.85440394305358       -2.52591982156361
H           -8.23823324982136       -0.48737439337869       -2.99308044340393
H           -8.53323302430376       -0.83495901032669       -1.27944274345254
H           -4.65312035308426       -3.23322010169719       -2.10384630926442
H           -2.55169970055746       -2.20578304251790       -1.42958792447822
