  141
       -200.01539957
 C          4.2818011115        6.6255498012        0.3747408743
 C          5.1390772873        5.4306591380       -0.0511856747
 C          6.2310908738        5.2228244897        1.0080540105
 C          5.7827348846        5.7685116157       -1.4033162734
 C          4.3369521136        4.1443962565       -0.1880212646
 C          2.9746357522        4.0752590401        0.1083265681
 C          2.2461362715        2.9047375957       -0.0073232405
 C          2.8969832894        1.7681426019       -0.4471047093
 C          4.2760839406        1.8060701482       -0.7383872841
 C          4.9833993805        2.9885072370       -0.6072955482
 C          4.6599017326        0.4692904233       -1.1060266904
 C          5.8674813602       -0.1100605075       -1.4672231654
 C          5.9181337941       -1.4626580929       -1.7665536495
 C          7.2169248871       -2.1810223433       -2.0996824640
 C          7.4652404759       -3.2493418623       -1.0254668118
 C          7.1051588972       -2.8426760376       -3.4800682656
 C          8.4224207633       -1.2373597063       -2.1228726377
 C          4.7271919685       -2.1981069409       -1.7547542181
 C          3.5120653667       -1.6437201088       -1.4086493948
 C          3.4943216611       -0.3135190776       -1.0278966181
 N          2.4285523026        0.4707671536       -0.6133350058
 C          1.2266656755       -0.0393576556       -0.1293814401
 C          1.2123708717       -1.0936625901        0.8047959782
 N          2.4079574039       -1.5976085970        1.3298455900
 C          3.4495498531       -0.8229065144        1.8121807075
 C          3.4443993662        0.5096373185        2.1923528051
 C          4.6325387488        1.0559639807        2.6378129801
 C          5.7901025797        0.2892265944        2.7347211243
 C          5.7807561876       -1.0563634397        2.4239055843
 C          4.6000836181       -1.6247957180        1.9675560161
 C          4.2247281214       -2.9557684986        1.5788221528
 C          4.9126081077       -4.1590960380        1.5135611966
 C          4.2456329836       -5.2802788645        1.0605605658
 C          2.9114345773       -5.2101415489        0.6699742454
 C          2.2062143161       -4.0229335688        0.7289674587
 C          2.8669576780       -2.8972743349        1.1938457919
 C         -0.0024363314       -1.6211150158        1.2231576243
 C         -1.2149509956       -1.1121412799        0.7758236387
 N         -2.4145724382       -1.6545100964        1.2534760026
 C         -2.8493869820       -2.9500447390        1.0307091634
 C         -2.1570668522       -4.0354309517        0.5187205953
 C         -2.8400564244       -5.2278374834        0.3713547561
 C         -4.1827030372       -5.3408411365        0.7212473301
 C         -4.8805668765       -4.2587953264        1.2205747878
 C         -4.2155857653       -3.0505826699        1.3745675694
 C         -4.6224787003       -1.7488303726        1.8256404088
 C         -5.8243034319       -1.2224506809        2.2771036563
 C         -5.8637749577        0.1044871948        2.6578662190
 C         -4.7166141068        0.8923782095        2.6344703132
 C         -3.5078252125        0.3881443150        2.1950279463
 C         -3.4812400260       -0.9223968211        1.7459252207
 C         -1.2227662951       -0.0438803648       -0.1399188360
 N         -2.4205714941        0.4882725466       -0.6136064322
 C         -2.8862130413        1.7730599605       -0.3641073940
 C         -2.2278347569        2.8783952687        0.1391742768
 C         -2.9558130695        4.0357460317        0.3505990438
 C         -4.3237629946        4.1208941716        0.0853948226
 C         -5.1286295810        5.3868370728        0.3431123804
 C         -5.7968098787        5.8344766499       -0.9643155352
 C         -6.2015087321        5.0832358265        1.3990341251
 C         -4.2700418925        6.5461338371        0.8559578115
 C         -4.9743024670        2.9985842579       -0.4117354525
 C         -4.2682367414        1.8295829233       -0.6372112828
 C         -4.6560068108        0.5186719085       -1.0849280903
 C         -5.8669085905       -0.0364223191       -1.4717275279
 C         -5.9214752673       -1.3681521290       -1.8524377674
 C         -7.2220988822       -2.0597010163       -2.2321494207
 C         -7.1220520700       -2.5881863540       -3.6696676589
 C         -8.4314413783       -1.1240365468       -2.1532348653
 C         -7.4574231188       -3.2248547661       -1.2608289290
 C         -4.7321554219       -2.1055516192       -1.8903321780
 C         -3.5140910324       -1.5758362128       -1.5170076007
 C         -3.4911686791       -0.2693085606       -1.0621205816
 C          0.0030219826        0.4755770992       -0.5829940107
 C         -0.0017813603        1.4584099137       -1.6009133526
 N         -0.0131350221        2.2250534515       -2.4525640262
 H          4.9065132342        7.5145066603        0.4370972076
 H          3.8360044695        6.4618621949        1.3532062504
 H          3.4941769042        6.8184495956       -0.3498154388
 H          5.7812117003        4.9800729558        1.9687377102
 H          6.8210501476        6.1298223320        1.1229693347
 H          6.9001002962        4.4124151522        0.7321848113
 H          5.0147887404        5.8811470064       -2.1655881574
 H          6.4680211812        4.9890838295       -1.7238272555
 H          6.3386374902        6.7011859062       -1.3318046222
 H          2.4502882617        4.9537969764        0.4452699155
 H          1.1970479216        2.8971597622        0.2475353827
 H          6.0389830542        2.9901074246       -0.8299553435
 H          6.7472971731        0.5098953411       -1.5033624363
 H          7.5422080093       -2.7791022079       -0.0474036944
 H          6.6533293549       -3.9707613475       -0.9907883183
 H          8.3920095495       -3.7815928011       -1.2303016723
 H          6.3239956379       -3.5970373986       -3.4990153717
 H          8.0455699744       -3.3232150936       -3.7415318331
 H          6.8767788083       -2.0955495896       -4.2371708156
 H          8.5701847428       -0.7672575450       -1.1534242584
 H          9.3209478824       -1.8028990918       -2.3620265212
 H          8.2996643304       -0.4659526203       -2.8796253837
 H          4.7429894074       -3.2438125885       -2.0200484353
 H          2.6097833739       -2.2365564774       -1.4356312228
 H          2.5448978942        1.1048975790        2.1479224586
 H          4.6599546076        2.0986213958        2.9162110007
 H          6.7019802834        0.7536594683        3.0791080955
 H          6.6698342129       -1.6583012802        2.5364212786
 H          5.9492644812       -4.2123424729        1.8087497839
 H          4.7634975404       -6.2260458000        1.0019258943
 H          2.4165351865       -6.1007929613        0.3117782999
 H          1.1758565038       -3.9789259506        0.4097880844
 H         -0.0063613652       -2.4095960564        1.9608906889
 H         -1.1199319683       -3.9539046918        0.2294203622
 H         -2.3215015658       -6.0881835817       -0.0254373396
 H         -4.6829475215       -6.2891837519        0.5927305801
 H         -5.9236536052       -4.3458202459        1.4832192474
 H         -6.7067952897       -1.8419210413        2.3313069255
 H         -6.7924289332        0.5367730258        2.9993073203
 H         -4.7689623068        1.9184027479        2.9659024342
 H         -2.6171542912        0.9981079666        2.2051013164
 H         -1.1743259486        2.8531304476        0.3750483637
 H         -2.4274445008        4.8896762535        0.7404702373
 H         -6.3538558519        6.7554156201       -0.8051215861
 H         -5.0431062630        6.0139584425       -1.7278750631
 H         -6.4856012450        5.0819499298       -1.3370649193
 H         -6.7905180946        5.9746962425        1.6041066966
 H         -5.7342508400        4.7584571709        2.3264931005
 H         -6.8743008218        4.2984104222        1.0651132183
 H         -4.8980674251        7.4220673460        1.0068949508
 H         -3.4967526726        6.8069424398        0.1372293632
 H         -3.8056350133        6.3005160987        1.8083226892
 H         -6.0330597397        3.0143200125       -0.6180452761
 H         -6.7458984708        0.5856790877       -1.4642751625
 H         -6.9188434175       -1.7696398105       -4.3570505840
 H         -6.3269731417       -3.3215346544       -3.7692515624
 H         -8.0579676506       -3.0602275566       -3.9615526965
 H         -8.3276883648       -0.2915825561       -2.8453183869
 H         -8.5602907492       -0.7371312042       -1.1450165232
 H         -9.3324959274       -1.6726012367       -2.4208358374
 H         -8.3851524376       -3.7381692136       -1.5058433618
 H         -7.5261531325       -2.8485181130       -0.2424593571
 H         -6.6449410516       -3.9450535430       -1.3010495212
 H         -4.7517113774       -3.1331497647       -2.2187979366
 H         -2.6134315852       -2.1685421442       -1.5794856129
