68
 energy: -115.184746999793 gnorm: 0.000109925692 xtb: 6.7.1 (edcfbbe)
C            6.86088359086337        3.42896222601276        0.28592111424282
C            7.81301911035477        2.43502094689611        0.08031521752726
C            7.43945674850132        1.11277301170413       -0.04220080437307
C            6.09298545283549        0.76656195144326        0.03867128438572
C            5.14787688751871        1.78403082606296        0.24585096972714
C            5.51907463152727        3.11182077121376        0.37109015578717
S            3.50936758032826        1.17329780470564        0.31905499037652
C            4.08373592141140       -0.46350460804225        0.05719848171185
C            5.48333118824690       -0.53471563213241       -0.05273225447879
C            6.12567206049079       -1.76999989028166       -0.19239567064722
C            5.40052900194183       -2.93830859661300       -0.18302338251321
C            4.01297133467381       -2.87816226239112       -0.06720222745957
C            3.00240144229076       -3.89300678308846        0.04045841866361
C            3.04080460962771       -5.28196207535085        0.02863543411889
C            1.85459859438353       -5.97444709946145        0.16470809346332
C            0.64187860326769       -5.30286947838851        0.30652017422246
C            0.57813569937749       -3.92231970609114        0.31919320278300
C            1.76830805252540       -3.22578654404147        0.19023975524466
N            1.98335599823133       -1.85642542934698        0.13878747389029
C            0.97992426173411       -0.90203874705736        0.07517898928443
C            0.99992208227223        0.13014239365061       -0.87075002620510
N            0.03203503805225        1.01895345935709       -0.93309613006728
C           -0.97989483278595        0.90217203081224       -0.07532275844586
N           -1.98337197697895        1.85650236712761       -0.13899216284939
C           -1.76839313641964        3.22587014229018       -0.19061766344157
C           -0.57826522990641        3.92244905125919       -0.31973297554796
C           -0.64207752157790        5.30299744243344       -0.30722562057216
C           -1.85482089269230        5.97453146255725       -0.16541132253748
C           -3.04098189070748        5.28200216656000       -0.02917255764209
C           -3.00250831292846        3.89304772131336       -0.04083207988927
C           -4.01302312291271        2.87816770781981        0.06701100116064
C           -5.40057436299184        2.93826950944379        0.18292732682247
C           -6.12566647512523        1.76993092805373        0.19249260648998
C           -5.48328265605607        0.53466003078107        0.05291385365705
C           -6.09289189317182       -0.76665271477512       -0.03828897155950
C           -7.43934024203744       -1.11291162217218        0.04276054665651
C           -7.81285821625028       -2.43519017231074       -0.07956031122269
C           -6.86070125992008       -3.42911466629437       -0.28514820547972
C           -5.51891475901454       -3.11192543968126       -0.37049452996938
C           -5.14776130825412       -1.78410498265738       -0.24544728235953
S           -3.50928513107013       -1.17331091933233       -0.31887561786735
C           -4.08369288876847        0.46349582620456       -0.05712728142161
C           -3.34154360256178        1.63630077597562       -0.01003574103118
C           -0.99986036506252       -0.12997383819749        0.87064768725173
N           -0.03198631289454       -1.01879943570256        0.93297668613481
C            3.34154276735745       -1.63627355496152        0.00993617986990
H            7.17259888810862        4.45826456083004        0.37953255087018
H            8.85667481695446        2.70434868449438        0.01629508181253
H            8.18236824988232        0.34607445367639       -0.20115747687956
H            4.77247349871528        3.87427993325880        0.53085941965766
H            7.20057113414225       -1.79504715853684       -0.27999291508662
H            5.89383645706269       -3.89525602546984       -0.25134877226227
H            3.97940880680576       -5.80266760878694       -0.08522170783446
H            1.86224826978507       -7.05427803648200        0.16162733132670
H           -0.26828036055662       -5.87440559202532        0.41089461719912
H           -0.35863432396396       -3.40095196316249        0.43613459458005
H            1.78602168715792        0.22343448563807       -1.60596121871171
H            0.35852359556854        3.40111485431762       -0.43666847556435
H            0.26804730564317        5.87456628653284       -0.41172103393863
H           -1.86252579761108        7.05436238050949       -0.16246348782028
H           -3.97960632432398        5.80267297202300        0.08467665324767
H           -5.89391626726199        3.89520421360284        0.25118094841561
H           -7.20055945746526        1.79494092940241        0.28017461509651
H           -8.18226831210289       -0.34622678040411        0.20170585709390
H           -8.85649560303061       -2.70455532546916       -0.01540002652872
H           -7.17238179681237       -4.45844162996219       -0.37860409039232
H           -4.77229706310067       -3.87437154685854       -0.53024834659088
H           -1.78592167133931       -0.22322344242946        1.60590481642664
