68
 energy: -115.112135348992 gnorm: 0.000051973177 xtb: 6.7.1 (edcfbbe)
C            6.50597466424012        3.81352124481961       -0.20768825115556
C            7.54038068871595        2.88173058051518       -0.19150485581261
C            7.27298108644747        1.53071359836909       -0.12167528292028
C            5.95153512009321        1.09209698457040       -0.06984922700681
C            4.92088762660968        2.04604479327756       -0.08476499017160
C            5.18841935981786        3.40324180851785       -0.15017232766342
S            3.32910239662427        1.32318850072308        0.02046055206671
C            4.03444482661294       -0.27352870639787        0.04385578401811
C            5.44236301267005       -0.25139456404246       -0.00708231395655
C            6.17646877794944       -1.44241754833356       -0.01810354764252
C            5.53734285431977       -2.66140198029834        0.00356241194420
C            4.14562152427976       -2.69673403343774        0.03469093452488
C            3.20054427266194       -3.77813512263457        0.02385559188373
C            3.33222456583299       -5.15991779368974        0.00561421896664
C            2.18668300574337       -5.93274886492136        0.02281043955177
C            0.92401108559932       -5.34652732039890        0.07491053401053
C            0.76701437432186       -3.97264422059561        0.09215432487208
C            1.91352718152796       -3.19326712560155        0.04837393632883
N            2.04236073713369       -1.81633610670671        0.07320581338851
C            0.99958813032339       -0.91228588657949        0.07141798061061
C           -0.05970090441360       -1.03569186039415       -0.80079223947164
N           -1.04809501042128       -0.14126600148765       -0.85883015548204
C           -0.97943723015214        0.92200073795987       -0.01153269657013
N           -2.01959056316197        1.82804177081247       -0.01728501600373
C           -1.88643242900169        3.20384956999093        0.04407413801118
C           -0.73751190699653        3.98120679127591        0.03582926462801
C           -0.89094184955044        5.35462791093829        0.08791267215790
C           -2.15241883053333        5.94347811650502        0.13851417290593
C           -3.29999833826155        5.17394158663275        0.11642777483498
C           -3.17161314417698        3.79278652726211        0.06249377889016
C           -4.11997085453009        2.71609690408434        0.00413470656390
C           -5.51217889861790        2.68871261357501        0.00415777562710
C           -6.15805445604951        1.47375218226049       -0.02636209742464
C           -5.42976169729834        0.27959671315146       -0.05860399736113
C           -5.94915734198025       -1.06136699196659       -0.05452587502777
C           -7.27439386258919       -1.49166087682917       -0.05383104888110
C           -7.55220545315246       -2.84228373772298       -0.03985953333144
C           -6.52456581631966       -3.78165259273643       -0.02942302115555
C           -5.20338041977998       -3.37925025703438       -0.03683610351349
C           -4.92547231759809       -2.02257245165018       -0.04626141433049
S           -3.32678311404831       -1.30809941468613       -0.08726910972779
C           -4.02070519882611        0.29402229987327       -0.07522316441448
C           -3.36631864139465        1.51930611405026       -0.04707088437094
C            0.07758207938013        1.04203542903453        0.86446207950856
N            1.06857660759799        0.15054286686149        0.91899514675051
C            3.38730482664886       -1.50234612123999        0.06771031248245
H            6.73574686522475        4.86691452899603       -0.26477041420363
H            8.56377393697010        3.22368482161950       -0.23405289228035
H            8.07925973791280        0.81307543539888       -0.10622613282776
H            4.37982522630244        4.11783152910442       -0.15853065778838
H            7.25358231630728       -1.39332133021698       -0.05580793462442
H            6.10069638028864       -3.58133430515574       -0.01347733119358
H            4.30974437783851       -5.61684501007073       -0.01579421736966
H            2.26775617102599       -7.00928372167357        0.00740027383389
H            0.04912062636515       -5.97818077711509        0.10715830374141
H           -0.21327759501085       -3.52524386354166        0.15322839364673
H           -0.07875836531497       -1.82220803850778       -1.53866220524914
H            0.24269361970508        3.53390876653955       -0.02637024493055
H           -0.01380100972437        5.98397726786646        0.08452442527887
H           -2.23066718224088        7.01941352002382        0.18283489190862
H           -4.27659903824173        5.63294321572496        0.13482397644273
H           -6.07039223764118        3.61135100608555        0.03651669656299
H           -7.23596994175627        1.42967735999977       -0.01487103220610
H           -8.07542280856248       -0.76809079868034       -0.06587954411296
H           -8.57854784482454       -3.17802146162272       -0.03772650884209
H           -6.76258729780436       -4.83470234702893       -0.01686221661091
H           -4.39983992256337       -4.09956725468620       -0.03319223457445
H            0.09274978109125        1.82337391986608        1.60788421299753
