68
 energy: -115.185719278783 gnorm: 0.000055600256 xtb: 6.7.1 (edcfbbe)
C            6.49980012994386        3.83595613035927       -0.34549378391221
C            7.53824652758961        2.91221523621972       -0.27067043170203
C            7.27629683388151        1.56230066225434       -0.16238632326550
C            5.95711478650094        1.11724009403201       -0.12662325626421
C            4.92254774185433        2.06370640985308       -0.20220653318697
C            5.18334604137854        3.41937368502272       -0.31165769353153
S            3.33475658981970        1.33134980861345       -0.13748167092449
C            4.04895386442257       -0.26015482072857       -0.01893369233689
C            5.45497678287896       -0.22843902549358       -0.03048027409165
C            6.19737978344253       -1.41333785598641        0.02181472890173
C            5.56422753138080       -2.63302925998308        0.06017992028664
C            4.17090404140235       -2.67521797007838        0.06208293797047
C            3.23443039618071       -3.76392607985643        0.05938130820660
C            3.38362842461811       -5.14434623770127        0.09941596430674
C            2.24928844569864       -5.93062118251414        0.11849619099840
C            0.98041884519526       -5.35670611077703        0.11707238094431
C            0.80710621360687       -3.98558023088881        0.07577406151285
C            1.94342875531799       -3.19268473064235        0.02541052888123
N            2.06080621841180       -1.81139572381099        0.00661994095799
C            1.01009680645356       -0.90892759324413        0.04097099969217
C           -0.12113762422054       -1.04682202234540       -0.76811897902733
N           -1.09788051185140       -0.16615014470417       -0.72843948919509
C           -0.98942996904610        0.86046434130337        0.11548613866982
N           -2.02282639311446        1.78037425340019        0.12757502333639
C           -1.87456355326697        3.15929571178185        0.17779187339148
C           -0.72172386160359        3.92973372119837        0.20164613340179
C           -0.86560666660684        5.30488061601631        0.22126013156107
C           -2.12120794729408        5.90656661786593        0.20561006873187
C           -3.27063693791429        5.14494907717916        0.14310939627008
C           -3.15011560723116        3.76144127785671        0.12036604808012
C           -4.10863585826204        2.69691548898404        0.02143546760774
C           -5.50061023049806        2.69528922166616       -0.04772420191123
C           -6.16542128231013        1.49404534802326       -0.11260851965556
C           -5.45593259101254        0.28860833337544       -0.09202855886320
C           -5.99920965050773       -1.04417940397266       -0.11064010034855
C           -7.32961700987331       -1.44970421452558       -0.18399528365078
C           -7.63339769849050       -2.79512033353394       -0.18375937114332
C           -6.62628271308403       -3.75309158859992       -0.10933803198240
C           -5.29982106977623       -3.37558502928109       -0.03522453941461
C           -4.99662847701014       -2.02419322576989       -0.03721040395289
S           -3.38878461430043       -1.33766162852876        0.03416086374976
C           -4.05024814360542        0.27943781509991       -0.02648618505268
C           -3.37334505700104        1.49140580215947        0.01357981707285
C            0.13226819679927        0.98419053923518        0.94260393786845
N            1.11434690291893        0.11083027871063        0.89433182192977
C            3.40592522334544       -1.48855381829343        0.04343991920641
H            6.72482160432280        4.88845567014948       -0.43081877453716
H            8.56054417196888        3.25882262770765       -0.29860541332431
H            8.08575895976434        0.85042334642311       -0.10570722089935
H            4.37132669145171        4.12771496085811       -0.36947379878994
H            7.27480160636435       -1.35774254170641        0.01707101461109
H            6.13122127984440       -3.55063893031803        0.07993302806922
H            4.36762520762059       -5.58703791338348        0.12278758671109
H            2.34215500269877       -7.00586515681084        0.14806650172520
H            0.11110030733886       -5.99599001888651        0.15422938349023
H           -0.18239810718028       -3.55527501021338        0.10048821530635
H           -0.23350479108702       -1.85575838649380       -1.47512464807291
H            0.26018605990626        3.48244730492088        0.18434001753766
H            0.01770795363806        5.92536422014881        0.24397880942932
H           -2.19117175439897        6.98370606288175        0.22732744734056
H           -4.24415083521308        5.60912863804953        0.10429730628657
H           -6.04136783341354        3.62875828092635       -0.04428901875961
H           -7.24253974295066        1.46816272968914       -0.16760546896289
H           -8.11498929353054       -0.71139503013289       -0.24173278853890
H           -8.66419599401644       -3.11147583604967       -0.24220938923753
H           -6.88402125396876       -4.80156340243212       -0.11061974677218
H           -4.51192904893876       -4.11069982958613        0.02194693053471
H            0.23112260419834        1.77567787025942        1.67083942704883
