45
 energy: -74.390471519149 gnorm: 0.000067810609 xtb: 6.7.1 (edcfbbe)
C            4.62273574270467        0.00441501426627        2.76662664933387
C            4.90736318846312       -0.93144672406836        1.78318431611877
C            4.53651740844381       -0.68787911301726        0.47096835675535
C            3.88960334449840        0.49438993275910        0.16475067898480
C            3.60057928947198        1.43469392542688        1.13431645764196
C            3.97274274420899        1.18623478317242        2.44593086727051
S            3.36510895272506        0.77041152835809       -1.52884915007249
O            2.97296542185348        2.15635717496795       -1.68053507400129
O            4.38524339000738        0.27617055607258       -2.42933798431680
C            1.89844253215147       -0.25493206658541       -1.69984095664405
C            1.94198960080090       -1.41881113898619       -2.44144215004658
C            0.79572941965539       -2.19452909120602       -2.53291236501838
C           -0.36711879733950       -1.79877234472338       -1.89716993782005
C           -0.40049501411724       -0.62282577024735       -1.14469628435148
C            0.75625215296793        0.14835544212592       -1.04032131270060
N           -1.57608345457383       -0.21754293222599       -0.51093006302652
C           -2.12798465387896        1.05190072667349       -0.56696432724328
C           -1.69863840091638        2.17556777566514       -1.25880060946180
C           -2.46535635296096        3.32258974836831       -1.16626281257490
C           -3.63724301569653        3.35684310166939       -0.41356620620541
C           -4.08251331684766        2.23440906904572        0.25643581260616
C           -3.32850751527215        1.07036642482975        0.17875427668841
C           -3.49806222523386       -0.25117000667080        0.71830150613440
C           -4.45886151290351       -0.82965696460981        1.53797645054505
C           -4.30572431415435       -2.15203875297806        1.90548661600924
C           -3.20306195642491       -2.88947388858237        1.47989733498570
C           -2.23520633657266       -2.33536963198105        0.66260271283464
C           -2.39835958377811       -1.01541849402531        0.26723539141100
H            4.91259097801215       -0.18722740976815        3.78878734098807
H            5.41794609990863       -1.84775928591968        2.03699317543435
H            4.75265056696600       -1.38812652657345       -0.32047637967147
H            3.10367245620228        2.34748352607179        0.84391184560064
H            3.75670277112330        1.91405381104257        3.21300859516677
H            2.85896175389988       -1.68738654419319       -2.94102101163213
H            0.80589109114675       -3.10301333678312       -3.11506889983747
H           -1.26640189243517       -2.38711335725227       -1.99663007489542
H            0.77094854251816        1.05601961680978       -0.45878220255886
H           -0.80092616114765        2.16153029988343       -1.85856263032437
H           -2.14749806830900        4.21106655933634       -1.69222929423644
H           -4.20644518603395        4.27344943284048       -0.36440675643694
H           -4.99923538521421        2.25556353059366        0.82625990593428
H           -5.30305715888616       -0.25173240213204        1.88272073493127
H           -5.04285017496970       -2.62161027599762        2.54012123809551
H           -3.09929683381868       -3.91640743113472        1.79821855197989
H           -1.37570913625389       -2.91163049032774        0.35631866762770
