45
 energy: -74.278819239887 gnorm: 0.000086703488 xtb: 6.7.1 (edcfbbe)
C            4.37745730532664        2.47179283585770       -1.41045858691259
C            3.57899508814066        2.68193669351852       -0.29245557016092
C            3.18137554811977        1.61158958165549        0.48550006457838
C            3.59876760142416        0.33149436043409        0.14520809635058
C            4.39283513862148        0.11069646464434       -0.97205498409951
C            4.78495178546964        1.18567199846635       -1.74605779178567
S            2.97776272337091       -1.06293706410942        1.06291660816648
O            3.93614637393162       -2.15073752118432        0.99619547443317
O            2.58057856868102       -0.61227549197083        2.38596843495540
C            1.53057513579485       -1.49762407661355        0.14338753196388
C            1.58725174971055       -2.48129420619107       -0.87121058596092
C            0.45982789056780       -2.72721894019967       -1.62662055491708
C           -0.71267353423502       -2.01647206605357       -1.42259029997126
C           -0.75222166615794       -1.00419094935155       -0.41765396417646
C            0.38274085186623       -0.75598356852984        0.34668048634080
N           -1.90174698368154       -0.26499672134290       -0.21403536661054
C           -1.94146252280728        1.10519466807475       -0.03777190198820
C           -0.91348056122291        2.03094201432672       -0.12552129172698
C           -1.22943884127744        3.37421271601580        0.07694251492398
C           -2.53841502902391        3.76698771427217        0.34350549707691
C           -3.58224173819751        2.84934266427442        0.38985151461246
C           -3.29348345153515        1.50376744346845        0.18212673824614
C           -4.08622232994764        0.31525691652840        0.11987508745145
C           -5.44560984299076        0.05280104096010        0.25840252746596
C           -5.87918909528534       -1.26592307720491        0.17733685305086
C           -4.98991895407700       -2.31735932345948       -0.02959007642334
C           -3.62388400898392       -2.07962067428822       -0.17567546150248
C           -3.18619277641677       -0.76525469329410       -0.12515826781723
H            4.68534861076858        3.30932016018593       -2.01752311896007
H            3.27170853885351        3.68266253601252       -0.02783593030153
H            2.57466779896113        1.74056573674455        1.36862657187466
H            4.70101019678010       -0.89820898578646       -1.19779178197591
H            5.41020352219422        1.02511653041689       -2.61157688262334
H            2.50547974346311       -3.02807958982191       -1.00393269636611
H            0.49220978511755       -3.47707418766402       -2.40290326400316
H           -1.56518767948875       -2.15490418956838       -2.06593473208810
H            0.36019849361404       -0.05069467041007        1.16283153790157
H            0.09674725618514        1.73136318767583       -0.35720506865844
H           -0.44841445000458        4.11490111328071        0.01789227093656
H           -2.74999118526786        4.81423767587766        0.50148731366528
H           -4.59388601601786        3.17229199236475        0.57718085235922
H           -6.14514078865590        0.85479790913018        0.43250957317829
H           -6.93115344720589       -1.48285589802172        0.29015219828952
H           -5.35721076278961       -3.33042163531119       -0.06660322639024
H           -2.93236156429248       -2.89754003661351       -0.30139941171265
