45
 energy: -74.278865964908 gnorm: 0.000033025132 xtb: 6.7.1 (edcfbbe)
C            4.29727683539470        2.55559476915501       -1.42836379785220
C            3.43151315186242        2.80738791584942       -0.37034529180520
C            3.04916972421951        1.78045805270859        0.47082598424918
C            3.54767522414628        0.50235794427710        0.25394663392847
C            4.41037289183301        0.24015347002709       -0.80189872046801
C            4.78848846453211        1.27234809033691       -1.63871771289663
S            2.93616417294099       -0.84931222364947        1.23879136246032
O            3.91894960133620       -1.91698194270302        1.25653059839445
O            2.49626631747526       -0.33415669792861        2.52421020813670
C            1.52124059969380       -1.35937492221570        0.30864743448314
C            1.63800635789148       -2.34349591716606       -0.70087779285549
C            0.53761933971603       -2.63481598922340       -1.47942234254137
C           -0.66595075099684       -1.96974966188070       -1.30335259454033
C           -0.76811711766482       -0.95909162051978       -0.30093098014835
C            0.34015164908146       -0.66460972072170        0.48603245513052
N           -1.95024021648582       -0.26679314670264       -0.12227494494835
C           -2.04726077615387        1.09967321721249        0.06235618737888
C           -1.05460524972657        2.06554140186758        0.00411902772322
C           -1.42648541864183        3.39326178223416        0.21272599362460
C           -2.75498584387190        3.73273986944128        0.45478943497928
C           -3.76337260181203        2.77540122050321        0.46731838022130
C           -3.41820322355020        1.44436917409770        0.25308428615977
C           -4.16321416677215        0.22706285487585        0.16104562386871
C           -5.51502366462267       -0.08674864321138        0.25968566174425
C           -5.89688204679583       -1.41976113125814        0.15618364327312
C           -4.96332640229877       -2.43529497181738       -0.03405905446376
C           -3.60381294815323       -2.14561779806798       -0.14040684269655
C           -3.21675582615305       -0.81631560848397       -0.06898945980215
H            4.59264845635762        3.35945781464307       -2.08514723504713
H            3.05906975224402        3.80703074643002       -0.20342438595426
H            2.39142733452383        1.94381976862441        1.31062141346971
H            4.78078796806267       -0.76487539703688       -0.93064724252711
H            5.46684109565134        1.08018273530577       -2.45649026335388
H            2.57951210279966       -2.85399418472487       -0.81338903980754
H            0.61610593549300       -3.38385124406924       -2.25322284255286
H           -1.49658144240122       -2.14062807999498       -1.96698746707749
H            0.27321781241801        0.03950849359427        1.30077219482997
H           -0.02924409810248        1.80752700561801       -0.21030449679813
H           -0.67382288050634        4.16432513465387        0.17858551375350
H           -3.00991870953796        4.76922874071797        0.61953661395180
H           -4.79069165995111        3.05719489199187        0.63472421280352
H           -6.24853210914767        0.68726257469252        0.42022631775511
H           -6.94275542553506       -1.67661922877375        0.23735300787287
H           -5.29108664555470       -3.46105329783651       -0.08887180638973
H           -2.87935001594263       -2.93657912666515       -0.25228156736041
