50
 energy: -80.806731964743 gnorm: 0.000066940439 xtb: 6.7.1 (edcfbbe)
C            4.00627146036378       -3.54990569662877       -0.18453008335985
C            2.71360735967011       -3.45671391345698        0.33025538920142
C            2.09958412171611       -2.23260603267303        0.51300927601515
C            2.80122979958113       -1.08653243683672        0.16314848894439
C            4.13526309423021       -1.17338964637683       -0.31568819959468
C            4.72875336070991       -2.41397105409367       -0.49833791721567
C            4.59513340251776        0.17386191551014       -0.48780409356360
C            5.79755089313271        0.73204689621168       -0.89605784475164
C            5.90894162894637        2.11002965107804       -0.93957453295868
C            4.84097370819628        2.93147978163516       -0.57808304932025
C            3.63203989939781        2.39978350479016       -0.17215085191486
C            3.51604040230317        1.01754543623876       -0.11967673661474
N            2.43527968398995        0.24312667635008        0.25586541861734
C            1.19206719667260        0.74208714901205        0.60315645006967
C           -0.00031393300131        0.14872749044503        0.20682036094146
C           -1.18992632410404        0.74724928412007        0.60393394733285
N           -2.43502300513641        0.25128991912065        0.25879485046693
C           -2.80587170847309       -1.07750286800799        0.17584817293197
C           -2.10860039286074       -2.22304682025010        0.53591148444317
C           -2.72687484622258       -3.44636194900842        0.36250987236848
C           -4.01925411382563       -3.53890854595593       -0.15311698251145
C           -4.73727714590191       -2.40298434831445       -0.47725291274384
C           -4.13955901510397       -1.16310004536702       -0.30401365633596
C           -4.59398066624830        0.18464073254269       -0.48728225691753
C           -5.79343564518676        0.74449629371915       -0.90181037507422
C           -5.89908771998403        2.12259337765538       -0.95620287099045
C           -4.82845315580024        2.94255111752337       -0.59929316125583
C           -3.62237248594923        2.40919974719350       -0.18707916727087
C           -3.51214722179145        1.02693562080107       -0.12401544314981
N           -1.15675878669867        1.94181231303951        1.30617141186070
C            0.00466455337349        2.47648440280201        1.56820229790331
N            1.16373529571234        1.93609384283158        1.30674706323014
H            4.45114077177842       -4.52410836768026       -0.32074197460463
H            2.18403854018142       -4.35873486758306        0.59767802817947
H            1.11290551354498       -2.17562679788548        0.94410875828361
H            5.73956656312181       -2.48567626305524       -0.87032437721898
H            6.62876830184733        0.10027111674928       -1.17077893505953
H            6.83605593565728        2.56154662417800       -1.25995159973641
H            4.95999145367600        4.00344225874052       -0.62433083850229
H            2.80285926497155        3.03142961739181        0.10605057052827
H           -0.00275765884531       -0.71054971360839       -0.44418393541975
H           -1.12226604597220       -2.16543285001590        0.96786518638919
H           -2.20108926865125       -4.34813818342923        0.63810941748674
H           -4.46757869334086       -4.51255424845698       -0.28179992391968
H           -5.74788295598027       -2.47421751167812       -0.84989630434271
H           -6.62680991079700        0.11405321184422       -1.17303923748926
H           -6.82385504126959        2.57532588512762       -1.28161446744929
H           -4.94313729626059        4.01458769825087       -0.65406572688655
H           -2.79112488859953        3.03955411200232        0.08784403694456
H            0.00692409808190        3.42810442667962        2.08323609738136
