50
 energy: -80.807045519312 gnorm: 0.000052592326 xtb: 6.7.1 (edcfbbe)
C            6.08128057245772        1.22076731935388        1.43932316273321
C            5.04059911677253        2.11310138548557        1.69752954693411
C            3.77222797714428        1.90337696672780        1.19074010070462
C            3.56895819460291        0.78103819405334        0.39936613288642
C            4.61896145960457       -0.13504122360924        0.13498691121156
C            5.88234513846735        0.09626508071553        0.65861133072489
C            4.06436959802589       -1.15917517888917       -0.70202437720621
C            4.59510208220099       -2.29782455264791       -1.29077217152579
C            3.78314570202112       -3.06519287353240       -2.10452907478524
C            2.46225588572333       -2.69375568984960       -2.35240877468415
C            1.90879460932247       -1.56817838343710       -1.77138616043362
C            2.70523806597122       -0.81167487567715       -0.92138692952325
N            2.41795970466607        0.35486255005072       -0.23447773198141
C            1.18733284691968        0.97473031465156       -0.12612367406595
C            0.00091110083613        0.26101062841548       -0.00579949542744
C           -1.18396936594425        0.97797698952329        0.11050764651952
N           -2.41593263178045        0.36203565479244        0.22491086589491
C           -2.70512724126821       -0.79994564646151        0.91885180219434
C           -1.90877442520150       -1.55521094434731        1.77005613931085
C           -2.46450252448155       -2.67574551073433        2.35862924404391
C           -3.78763321429324       -3.04340789963317        2.11721205660447
C           -4.59942904830186       -2.27698225892613        1.30242942723859
C           -4.06635158983748       -1.14339950370344        0.70607504502223
C           -4.62013937854246       -0.12140967658146       -0.13402244770169
C           -5.88471446277019        0.11223319118402       -0.65371088732675
C           -6.08246168598170        1.23365822480321       -1.43912566940988
C           -5.03933463695313        2.12059566183248       -1.70594566482162
C           -3.76975545929499        1.90838891968165       -1.20324284735442
C           -3.56764643108761        0.78929281492948       -0.40696673745445
N           -1.15718055104554        2.36088471643232        0.03328147938931
C            0.00387810485985        2.95596375955856       -0.01471491874383
N            1.16369269896850        2.35812520651512       -0.05827460695466
H            7.05706013706385        1.41327845523550        1.85993219394505
H            5.22878276743893        2.97981562155333        2.31301308982999
H            2.96364176004736        2.58802042853477        1.39198483156079
H            6.69270780382686       -0.58761772572622        0.45578378616637
H            5.62597188831747       -2.56961815149307       -1.12140458441408
H            4.17767283582859       -3.95523095674030       -2.57118241731669
H            1.85971323192900       -3.29424780765874       -3.01718216985265
H            0.89413995221335       -1.28050534980631       -1.99929352169120
H           -0.00011755840218       -0.81650613369706       -0.00269585063037
H           -0.89234472418064       -1.27033393041058        1.99343019873858
H           -1.86192155730993       -3.27515513670257        3.02434660871917
H           -4.18390215231060       -3.92960406680180        2.58965128891556
H           -5.63192942785618       -2.54557280894888        1.13798916041927
H           -6.69689178227760       -0.56745911268101       -0.44417402230976
H           -7.05920775296326        1.42799762410893       -1.85662883973091
H           -5.22663063954570        2.98505075885498       -2.32485736239681
H           -2.95934398282815        2.58883908916945       -1.41122920947639
H            0.00498782254913        4.03781115459833       -0.01863411993903
