50
 energy: -80.905497008109 gnorm: 0.000039351603 xtb: 6.7.1 (edcfbbe)
C            3.94308634264279       -3.54542342456488       -0.21100929901094
C            2.65966793433186       -3.43902933040979        0.31387683972455
C            2.06006700764867       -2.20817143678247        0.51196375827206
C            2.76572498106389       -1.06915294574411        0.15692322549228
C            4.08934016156124       -1.17114345689874       -0.32539093777469
C            4.67371524259395       -2.41442719364400       -0.51902934511195
C            4.57742322188720        0.17245557444730       -0.48190301162509
C            5.78763433179215        0.69271000516616       -0.91920364323646
C            5.94389693763080        2.06445778306353       -0.94682317758108
C            4.91023275949418        2.90757398796002       -0.54966650036151
C            3.69630561922681        2.40973302482003       -0.11165805105991
C            3.53792427797998        1.03422698797840       -0.07556131137044
N            2.42484429049802        0.27347107355808        0.27966844998580
C            1.18870979744399        0.79189637580528        0.60672565521863
C           -0.00046860135911        0.15817149385008        0.24280985751051
C           -1.18692668579210        0.79700106997316        0.60605191516221
N           -2.42455003091434        0.28114531282199        0.27964820638303
C           -2.77121436226391       -1.06106843897220        0.17358917329132
C           -2.07053088697667       -2.19794526681239        0.54483512157137
C           -2.67535182511361       -3.42871283866263        0.36315221823403
C           -3.95883838792779       -3.53644444077189       -0.16150087098509
C           -4.68418088003658       -2.40670584708222       -0.48620980008704
C           -4.09463115137837       -1.16333984918145       -0.30917082411256
C           -4.57595523106344        0.18042947487955       -0.48439810849937
C           -5.78233562029818        0.70139013416008       -0.93139489279313
C           -5.93101541297889        2.07349634191946       -0.97770283371358
C           -4.89387967356129        2.91652084742387       -0.58931626465301
C           -3.68367374945264        2.41812575056582       -0.14183204975658
C           -3.53299245719268        1.04240752579643       -0.08723899637579
N           -1.17479031582788        1.97233428918748        1.24331297558221
C            0.00358128780854        2.48792104342412        1.51532391138821
N            1.17987298255153        1.96653088789422        1.24559270948600
H            4.37668820605592       -4.52326792100673       -0.35692350560974
H            2.11979459582404       -4.33507820843365        0.58162657069575
H            1.08272305641911       -2.15247343488053        0.96299865871373
H            5.68354501914956       -2.48981994289843       -0.89234285063815
H            6.58493830638819        0.03484539190587       -1.23020904123025
H            6.87807688557926        2.49156896754423       -1.27990189562050
H            5.05901667202249        3.97664568269063       -0.58146287162748
H            2.90282243884661        3.06610945331015        0.20460359848303
H           -0.00298585528982       -0.72832830730392       -0.36630713273809
H           -1.09339783162827       -2.13924485571015        0.99620960091288
H           -2.13998349898654       -4.32348483029060        0.64392765629474
H           -4.39670340459959       -4.51430128799598       -0.29403228765943
H           -5.69393006566405       -2.48296016543687       -0.85958083483611
H           -6.58252960356551        0.04386107142337       -1.23562859674111
H           -6.86207140138916        2.50106989349878       -1.31886439292425
H           -5.03701176281196        3.98582493561997       -0.63584091004527
H           -2.88723016328372        3.07425156326831        0.16765160454097
H            0.00553590250108        3.44464186532209        2.02217227523167
