  61
        -97.83091302
 C         -6.7390547257        4.1125159655       -0.0240297335
 C         -5.6215592977        3.7635176833       -0.7646407543
 C         -5.1581652809        2.4623458554       -0.7616716009
 C         -5.8079205899        1.4873348452       -0.0050816977
 N         -5.3410409729        0.1674124667        0.0027477455
 C         -6.2525768385       -0.8947251900        0.0315430235
 C         -7.4534706933       -0.8151277558       -0.6731516453
 C         -8.3517175857       -1.8637711244       -0.6369714246
 C         -8.0672313620       -3.0073347593        0.0913041732
 C         -6.8742378594       -3.0926752125        0.7903048482
 C         -5.9731763356       -2.0462110583        0.7674465808
 C         -3.9694154391       -0.0888692027       -0.0182535968
 C         -3.0784851086        0.7441272017        0.6615365094
 C         -1.7252607038        0.4893954009        0.6379256690
 C         -1.2087889955       -0.6079195284       -0.0549694363
 C          0.2248941800       -0.8807588442       -0.0633792324
 C          0.7144098107       -2.1812069308       -0.0696460307
 N          2.0028004457       -2.4696125386       -0.0622507992
 C          2.9391677802       -1.5474753604       -0.0446193465
 N          4.2222305010       -1.8553346965       -0.0433236426
 C          5.1384425454       -0.9003360918       -0.0224676941
 C          4.7472786114        0.4768920661       -0.0057307842
 N          3.4802540443        0.8106781216       -0.0054319373
 C          2.5356369676       -0.1305973293       -0.0249557778
 C          1.1809137022        0.1498642576       -0.0410357045
 C          5.9476772638        1.2914198333        0.0201014926
 C          6.2201036976        2.6370015219        0.0460024785
 C          7.5687703137        3.0396207562        0.0703050695
 C          8.6155598766        2.1482559602        0.0696032618
 C          8.3682885311        0.7561370667        0.0435941344
 C          9.3089144620       -0.3025917036        0.0416196146
 C          8.8776267165       -1.6083217182        0.0171066860
 C          7.5184257664       -1.9702247403       -0.0067998813
 C          6.5771135217       -0.9655338672       -0.0059914970
 C          7.0281233333        0.3793067114        0.0190503179
 C         -2.1056246529       -1.4383808508       -0.7306719645
 C         -3.4590558721       -1.1838679532       -0.7187572510
 C         -6.9303143424        1.8445224708        0.7418294133
 C         -7.3903751219        3.1467622192        0.7259699354
 H         -7.1001996605        5.1296432400       -0.0316181160
 H         -5.1109309523        4.5084620857       -1.3570460886
 H         -4.2932195913        2.1899675730       -1.3486664661
 H         -7.6730507917        0.0713686615       -1.2499932478
 H         -9.2772566312       -1.7902680272       -1.1888008920
 H         -8.7703007309       -3.8259488399        0.1143875276
 H         -6.6465027496       -3.9779195957        1.3656306940
 H         -5.0486556876       -2.1104867333        1.3223940577
 H         -3.4605278788        1.5882725958        1.2168040625
 H         -1.0579433083        1.1321692589        1.1922517015
 H          0.0544519300       -3.0363555673       -0.0509859755
 H          0.8776966606        1.1843886973       -0.0640914249
 H          5.4324967772        3.3748850391        0.0483873898
 H          7.7823760147        4.0988916906        0.0910005667
 H          9.6342404977        2.5080251135        0.0896737301
 H         10.3653019152       -0.0777821548        0.0602483200
 H          9.6127711044       -2.4008175040        0.0157198414
 H          7.2315367757       -3.0102397351       -0.0248692354
 H         -1.7316976249       -2.2765717886       -1.2994134139
 H         -4.1355066198       -1.8278628946       -1.2613560536
 H         -7.4339417729        1.0949612675        1.3346179635
 H         -8.2599472571        3.4107159829        1.3096992377
