  61
        -97.83091302
 C         -6.7390547257        4.1125159655       -0.0240297335
 C         -5.6215592977        3.7635176833       -0.7646407543
 C         -5.1581652809        2.4623458554       -0.7616716009
 C         -5.8079205899        1.4873348452       -0.0050816977
 N         -5.3410409729        0.1674124667        0.0027477455
 C         -6.2525768385       -0.8947251900        0.0315430235
 C         -7.4534706933       -0.8151277558       -0.6731516453
 C         -8.3517175857       -1.8637711244       -0.6369714246
 C         -8.0672313620       -3.0073347593        0.0913041732
 C         -6.8742378594       -3.0926752125        0.7903048482
 C         -5.9731763356       -2.0462110583        0.7674465808
 C         -3.9694154391       -0.0888692027       -0.0182535968
 C         -3.0784851086        0.7441272017        0.6615365094
 C         -1.7252607038        0.4893954009        0.6379256690
 C         -1.2087889955       -0.6079195284       -0.0549694363
 C          0.2248941800       -0.8807588442       -0.0633792324
 C          0.7144098107       -2.1812069308       -0.0696460307
 N          2.0028004457       -2.4696125386       -0.0622507992
 C          2.9391677802       -1.5474753604       -0.0446193465
 N          4.2222305010       -1.8553346965       -0.0433236426
 C          5.1384425454       -0.9003360918       -0.0224676941
 C          4.7472786114        0.4768920661       -0.0057307842
 N          3.4802540443        0.8106781216       -0.0054319373
 C          2.5356369676       -0.1305973293       -0.0249557778
 C          1.1809137022        0.1498642576       -0.0410357045
 C          5.9476772638        1.2914198333        0.0201014926
 C          6.2201036976        2.6370015219        0.0460024785
 C          7.5687703137        3.0396207562        0.0703050695
 C          8.6155598766        2.1482559602        0.0696032618
 C          8.3682885311        0.7561370667        0.0435941344
 C          9.3089144620       -0.3025917036        0.0416196146
 C          8.8776267165       -1.6083217182        0.0171066860
 C          7.5184257664       -1.9702247403       -0.0067998813
 C          6.5771135217       -0.9655338672       -0.0059914970
 C          7.0281233333        0.3793067114        0.0190503179
 C         -2.1056246529       -1.4383808508       -0.7306719645
 C         -3.4590558721       -1.1838679532       -0.7187572510
 C         -6.9303143424        1.8445224708        0.7418294133
 C         -7.3903751219        3.1467622192        0.7259699354
 H         -7.1001996605        5.1296432400       -0.0316181160
 H         -5.1109309523        4.5084620857       -1.3570460886
 H         -4.2932195913        2.1899675730       -1.3486664661
 H         -7.6730507917        0.0713686615       -1.2499932478
 H         -9.2772566312       -1.7902680272       -1.1888008920
 H         -8.7703007309       -3.8259488399        0.1143875276
 H         -6.6465027496       -3.9779195957        1.3656306940
 H         -5.0486556876       -2.1104867333        1.3223940577
 H         -3.4605278788        1.5882725958        1.2168040625
 H         -1.0579433083        1.1321692589        1.1922517015
 H          0.0544519300       -3.0363555673       -0.0509859755
 H          0.8776966606        1.1843886973       -0.0640914249
 H          5.4324967772        3.3748850391        0.0483873898
 H          7.7823760147        4.0988916906        0.0910005667
 H          9.6342404977        2.5080251135        0.0896737301
 H         10.3653019152       -0.0777821548        0.0602483200
 H          9.6127711044       -2.4008175040        0.0157198414
 H          7.2315367757       -3.0102397351       -0.0248692354
 H         -1.7316976249       -2.2765717886       -1.2994134139
 H         -4.1355066198       -1.8278628946       -1.2613560536
 H         -7.4339417729        1.0949612675        1.3346179635
 H         -8.2599472571        3.4107159829        1.3096992377
  61
        -97.83080700
 C         -7.5782430300        3.1725362980       -1.8019770599
 C         -8.1148061397        1.9054098388       -1.6420309235
 C         -7.3786563717        0.9045084956       -1.0387933825
 C         -6.0882943822        1.1629113024       -0.5766414967
 N         -5.3416703049        0.1538367119        0.0427559661
 C         -5.9804986225       -0.7734081216        0.8752005160
 C         -7.0189657647       -0.3710817582        1.7148169482
 C         -7.6512545689       -1.2909968390        2.5283171165
 C         -7.2569349871       -2.6191215973        2.5249324500
 C         -6.2227614311       -3.0227660714        1.6960849706
 C         -5.5889565671       -2.1120782213        0.8734236143
 C         -3.9656225665        0.0645936315       -0.1735410987
 C         -3.4180109568        0.3701164893       -1.4211586637
 C         -2.0599637500        0.2756213170       -1.6312070811
 C         -1.1970829493       -0.1234729866       -0.6084823090
 C          0.2407935703       -0.2347603900       -0.8359819205
 C          0.7468777210       -0.6714047362       -2.0540678912
 N          2.0380591193       -0.8014453837       -2.2962096457
 C          2.9615482231       -0.5291258918       -1.4013061736
 N          4.2480287097       -0.6565482740       -1.6662836567
 C          5.1509580943       -0.3731613222       -0.7407256323
 C          4.7422558449        0.0788434098        0.5546085639
 N          3.4712709085        0.2102096712        0.8458943625
 C          2.5395428054       -0.0686480666       -0.0671409177
 C          1.1818767905        0.0661300813        0.1640567916
 C          5.9317725606        0.3067083552        1.3540145712
 C          6.1873432102        0.7310449463        2.6346858763
 C          7.5301882860        0.8209136698        3.0476407493
 C          8.5875248572        0.5036574961        2.2280750008
 C          8.3577917680        0.0635130011        0.9039219016
 C          9.3111980624       -0.3063975019       -0.0758809943
 C          8.8967186572       -0.7138380066       -1.3222511247
 C          7.5429131754       -0.7892451078       -1.6971592536
 C          6.5895811089       -0.4371194030       -0.7685045626
 C          7.0231911543       -0.0174298228        0.5153914065
 C         -1.7508512780       -0.4247869690        0.6376320022
 C         -3.1080722583       -0.3340353878        0.8538904757
 C         -5.5539395916        2.4412797524       -0.7368860951
 C         -6.2953027128        3.4330560730       -1.3487786130
 H         -8.1555399723        3.9511930950       -2.2767393910
 H         -9.1118806162        1.6913408660       -1.9977477807
 H         -7.7953976473       -0.0854795346       -0.9244894496
 H         -7.3222365661        0.6656425253        1.7248433125
 H         -8.4529971868       -0.9664251595        3.1752000330
 H         -7.7520396816       -3.3345098852        3.1637631656
 H         -5.9124121188       -4.0572359221        1.6827288174
 H         -4.7908822396       -2.4311108221        0.2189424611
 H         -4.0697879453        0.6778490924       -2.2256612748
 H         -1.6573821475        0.5280749666       -2.6007893641
 H          0.0971711062       -0.9599679326       -2.8676382588
 H          0.8650174468        0.4388746594        1.1250946703
 H          5.3911371499        0.9920328528        3.3149102450
 H          7.7303402359        1.1554642915        4.0557009720
 H          9.6010967592        0.5882518264        2.5929089965
 H         10.3640922226       -0.2661301695        0.1621727914
 H          9.6412195369       -0.9916289682       -2.0550707308
 H          7.2695178589       -1.1160136045       -2.6884421553
 H         -1.1077896378       -0.7461447138        1.4432703227
 H         -3.5176956790       -0.5659068148        1.8261833781
 H         -4.5582149445        2.6500604933       -0.3739031565
 H         -5.8706187618        4.4193240193       -1.4647220325
  61
        -97.83079659
 C         -7.9374061955        3.1727711470        0.9753589034
 C         -8.2581780493        1.8659696809        1.3048704712
 C         -7.4056558782        0.8307844141        0.9738609560
 C         -6.2144231436        1.0920328234        0.2973495316
 N         -5.3456848286        0.0491018906       -0.0452600118
 C         -5.8589774961       -1.1887795817       -0.4473225624
 C         -5.2235712682       -2.3726369255       -0.0724864553
 C         -5.7360921338       -3.5925479558       -0.4680674543
 C         -6.8888343720       -3.6549517302       -1.2337088565
 C         -7.5247296793       -2.4821755128       -1.6071079357
 C         -7.0158954803       -1.2567999295       -1.2234549050
 C         -3.9652037947        0.2413480182        0.0380334822
 C         -3.1068468223       -0.3247798929       -0.9061386961
 C         -1.7452676138       -0.1365709554       -0.8160083672
 C         -1.1868183227        0.6229155712        0.2151236694
 C          0.2560921622        0.8170670741        0.3134011932
 C          0.7962013029        1.9873844783        0.8339577432
 N          2.0938798308        2.1948619086        0.9563028916
 C          2.9950732840        1.3123119043        0.5867975324
 N          4.2873014565        1.5260125823        0.7435277626
 C          5.1669621197        0.6189370110        0.3490232128
 C          4.7251387687       -0.6000974639       -0.2582630810
 N          3.4474641674       -0.8411836700       -0.4189092176
 C          2.5383780562        0.0486691332       -0.0174202616
 C          1.1740693476       -0.1563910582       -0.1201088052
 C          5.8946799068       -1.3867800939       -0.6036302324
 C          6.1177626343       -2.6042798712       -1.1980300401
 C          7.4503350041       -3.0282017261       -1.3605076750
 C          8.5283350632       -2.2806492559       -0.9488602461
 C          8.3320049221       -1.0229788823       -0.3328226934
 C          9.3101482213       -0.1210338683        0.1523910900
 C          8.9270642458        1.0690266871        0.7253311709
 C          7.5828947309        1.4608160856        0.8614983125
 C          6.6060145856        0.6072507052        0.4006108951
 C          7.0071669160       -0.6208265830       -0.1855403018
 C         -2.0531998891        1.1896368795        1.1534924961
 C         -3.4149596956        1.0040668854        1.0700147460
 C         -5.8971945944        2.4091698427       -0.0344684050
 C         -6.7533677528        3.4377603192        0.3067662588
 H         -8.6053891873        3.9789753017        1.2378365647
 H         -9.1766112061        1.6508229967        1.8309040049
 H         -7.6527471337       -0.1861543475        1.2411975768
 H         -4.3319489404       -2.3271967721        0.5357040499
 H         -5.2362196765       -4.5017788351       -0.1678517178
 H         -7.2889921322       -4.6104888624       -1.5366399664
 H         -8.4205390078       -2.5209387666       -2.2092364572
 H         -7.5081195757       -0.3435100898       -1.5241121198
 H         -3.5208609411       -0.9070689677       -1.7164411990
 H         -1.1045624575       -0.5611758738       -1.5741751423
 H          0.1718494100        2.8112424867        1.1477199391
 H          0.8337507792       -1.0993075204       -0.5172333244
 H          5.3041700706       -3.2274183679       -1.5365414613
 H          7.6251525045       -3.9857218075       -1.8302920865
 H          9.5328008170       -2.6510375667       -1.0951659213
 H         10.3569482217       -0.3742699149        0.0701156867
 H          9.6899442474        1.7419757601        1.0905695542
 H          7.3346745276        2.4064106785        1.3177944133
 H         -1.6498205250        1.7559161986        1.9793851102
 H         -4.0673108530        1.4373177430        1.8140102719
 H         -4.9791917706        2.6163299130       -0.5647268564
 H         -6.4972450575        4.4530513939        0.0417268238
  61
        -97.83060498
 C         -7.8039917664        2.9585354234       -1.8530603157
 C         -8.2316514772        1.6522076470       -1.6808502700
 C         -7.4194761474        0.7270465125       -1.0545271352
 C         -6.1619563755        1.1021820129       -0.5822960220
 N         -5.3395651017        0.1667941502        0.0577226089
 C         -5.9151051150       -0.7938310148        0.8998956829
 C         -6.9733845593       -0.4488895502        1.7399490693
 C         -7.5422845769       -1.3978108228        2.5669794182
 C         -7.0641945761       -2.6979659464        2.5762702361
 C         -6.0125320235       -3.0452779192        1.7440641690
 C         -5.4421629602       -2.1057321819        0.9076216864
 C         -3.9625696671        0.1661773240       -0.1621382624
 C         -3.4328960521        0.5277775096       -1.4028337347
 C         -2.0730807699        0.4972121072       -1.6198437026
 C         -1.1874869872        0.1021279789       -0.6144736135
 C          0.2487458807        0.0144918319       -0.8580811117
 C          0.7473208708       -0.3436953986       -2.1052588230
 N          2.0350277146       -0.4813151508       -2.3589595290
 C          2.9643620670       -0.3027874906       -1.4463685750
 N          4.2462959974       -0.4574138567       -1.7170274775
 C          5.1536361566       -0.2852404129       -0.7684350383
 C          4.7545579303        0.0852318212        0.5556370594
 N          3.4887505217        0.2518066834        0.8499147059
 C          2.5519535274        0.0745056307       -0.0835036474
 C          1.1984907379        0.2315498078        0.1562732539
 C          5.9455243156        0.1849901464        1.3791096100
 C          6.2079941527        0.4861132153        2.6927630310
 C          7.5481015434        0.4616163170        3.1233277359
 C          8.5960739283        0.1505077488        2.2894566641
 C          8.3590944331       -0.1636729485        0.9312333200
 C          9.3021468818       -0.5103504906       -0.0669224764
 C          8.8810360296       -0.7915941808       -1.3455118814
 C          7.5301792505       -0.7570839478       -1.7365962299
 C          6.5868233402       -0.4239532852       -0.7908924352
 C          7.0274045672       -0.1323456350        0.5257236672
 C         -1.7233131342       -0.2411888126        0.6293549231
 C         -3.0810757332       -0.2069624023        0.8550241122
 C         -5.7382093313        2.4196984303       -0.7532169758
 C         -6.5548425168        3.3354222771       -1.3876919947
 H         -8.4395168063        3.6775674890       -2.3473276066
 H         -9.2021394032        1.3481002367       -2.0446087901
 H         -7.7503172120       -0.2937562550       -0.9301645778
 H         -7.3411224960        0.5668631855        1.7403593511
 H         -8.3591897400       -1.1172966750        3.2154764410
 H         -7.5087282386       -3.4357688012        3.2267192865
 H         -5.6380646864       -4.0583755377        1.7393026782
 H         -4.6296431111       -2.3814793781        0.2514040567
 H         -4.0996133541        0.8231782142       -2.1996291750
 H         -1.6891656221        0.7921830769       -2.5848905375
 H          0.0933210048       -0.5640866983       -2.9363656930
 H          0.8930137424        0.5478845147        1.1408543479
 H          5.4189432397        0.7348351802        3.3859442838
 H          7.7536357194        0.6972260775        4.1579794878
 H          9.6077527746        0.1434615759        2.6690467600
 H         10.3520974914       -0.5539842272        0.1830546962
 H          9.6175017541       -1.0549892865       -2.0916081649
 H          7.2510784320       -0.9885274851       -2.7527966450
 H         -1.0661173236       -0.5571211320        1.4254415930
 H         -3.4734155122       -0.4735063116        1.8255002746
 H         -4.7687466207        2.7181136082       -0.3817846903
 H         -6.2161785514        4.3536062876       -1.5120829742
  61
        -97.83053366
 C         -7.2105370728        3.4776181049        1.6152066437
 C         -5.9142773534        3.5716659182        1.1354974834
 C         -5.2919164107        2.4703566542        0.5814163404
 C         -5.9608259009        1.2485403415        0.5070482819
 N         -5.3293237600        0.1298815389       -0.0505972138
 C         -6.0570722466       -0.7670086771       -0.8391664495
 C         -7.0749406532       -0.3097123418       -1.6763168663
 C         -7.7972581759       -1.2017702026       -2.4443538496
 C         -7.5143057436       -2.5572017117       -2.3991842081
 C         -6.5000635160       -3.0157283483       -1.5744375669
 C         -5.7770370473       -2.1328788316       -0.7962966654
 C         -3.9645946227       -0.0703291264        0.1700192761
 C         -3.3991312273        0.2323390761        1.4102270260
 C         -2.0479338776        0.0699943532        1.6211584218
 C         -1.2112953770       -0.3932334994        0.6041021280
 C          0.2281435267       -0.5121787860        0.8206067793
 C          0.7477351687       -0.9314516769        2.0385936320
 N          2.0431354141       -1.0161248359        2.2806497010
 C          2.9560737874       -0.7009830146        1.3890431016
 N          4.2460544169       -0.7511569176        1.6640871412
 C          5.1374153864       -0.4103289172        0.7467078549
 C          4.7129419488        0.0041980068       -0.5559899964
 N          3.4390874239        0.0499757598       -0.8605085245
 C          2.5185645623       -0.2712153432        0.0496949811
 C          1.1569470052       -0.1936047205       -0.1847998132
 C          5.8915560712        0.3220924985       -1.3402002038
 C          6.1298418409        0.7669546059       -2.6172009378
 C          7.4663696066        0.9715661727       -3.0090262088
 C          8.5337771584        0.7472559732       -2.1720073680
 C          8.3216662286        0.2892415438       -0.8509649335
 C          9.2871992739        0.0092982818        0.1465905675
 C          8.8890483933       -0.4282801844        1.3880322789
 C          7.5409853767       -0.6213055789        1.7409990323
 C          6.5761422893       -0.3582258169        0.7950108265
 C          6.9931240447        0.0916678525       -0.4841802791
 C         -1.7855460617       -0.7133899975       -0.6273850654
 C         -3.1378580369       -0.5596833583       -0.8427499874
 C         -7.2640073379        1.1579131963        0.9950070381
 C         -7.8806197453        2.2674468169        1.5399015430
 H         -7.6946987197        4.3412567229        2.0450094464
 H         -5.3857457297        4.5123177639        1.1845410974
 H         -4.2847838169        2.5484843908        0.1987471357
 H         -7.2908008799        0.7477242137       -1.7214974342
 H         -8.5818720930       -0.8341326477       -3.0892084867
 H         -8.0802098387       -3.2508973188       -3.0021087668
 H         -6.2756651178       -4.0712516072       -1.5289889919
 H         -4.9945402939       -2.4942932545       -0.1451841832
 H         -4.0312268331        0.6016599549        2.2044650913
 H         -1.6271485798        0.3273522766        2.5817158910
 H          0.1072769835       -1.2374915197        2.8532224242
 H          0.8255495502        0.1583492556       -1.1488156248
 H          5.3247942657        0.9589688772       -3.3099291823
 H          7.6530296194        1.3220310966       -4.0142602982
 H          9.5418337106        0.9216114223       -2.5198801720
 H         10.3362373550        0.1429067450       -0.0736948019
 H          9.6425118263       -0.6351938987        2.1349767319
 H          7.2807621682       -0.9652441464        2.7299645256
 H         -1.1619806297       -1.0929535826       -1.4231462570
 H         -3.5649087705       -0.8040940576       -1.8044409991
 H         -7.7848420528        0.2128246520        0.9465063453
 H         -8.8893663382        2.1838029575        1.9166787218
  61
        -97.82986091
 C         -7.6752693521        3.1260338057        1.7015297798
 C         -6.4178669278        3.4282505105        1.2044809553
 C         -5.6440699540        2.4477514509        0.6144395624
 C         -6.1189181031        1.1398856758        0.5241007088
 N         -5.3401434677        0.1307741625       -0.0611000010
 C         -5.9696573198       -0.8091985305       -0.8893302165
 C         -6.9708862918       -0.4015462005       -1.7702614272
 C         -7.5958569474       -1.3231244506       -2.5874824627
 C         -7.2315945791       -2.6589962672       -2.5440490350
 C         -6.2398330006       -3.0693377260       -1.6680661290
 C         -5.6136271605       -2.1563119636       -0.8415925405
 C         -3.9689979588        0.0720717979        0.1702411094
 C         -3.4250246184        0.5485916633        1.3660844202
 C         -2.0668625019        0.5139725515        1.5847508216
 C         -1.1868102918       -0.0185514623        0.6372053891
 C          0.2514629766       -0.0526432321        0.8775962127
 C          0.7744892515       -0.0437257610        2.1675548922
 N          2.0664127505       -0.0310330743        2.4297422817
 C          2.9865822606       -0.0537865703        1.4908415666
 N          4.2732215725        0.0063235928        1.7709789478
 C          5.1704885769       -0.0537106049        0.7988615377
 C          4.7513781166       -0.2028053931       -0.5623934583
 N          3.4788085731       -0.2397849418       -0.8698336088
 C          2.5521140086       -0.1478101026        0.0868358675
 C          1.1933438714       -0.1129348139       -0.1677187725
 C          5.9371092713       -0.2899501668       -1.3957704624
 C          6.1848097955       -0.4576236539       -2.7358921045
 C          7.5258966997       -0.4956825312       -3.1623435124
 C          8.5888718056       -0.3660689028       -2.2999419746
 C          8.3673390757       -0.1921945364       -0.9142396223
 C          9.3275189932       -0.0414443144        0.1160623483
 C          8.9206670729        0.1121584995        1.4208677507
 C          7.5690079541        0.1232834629        1.8097859751
 C          6.6089823489       -0.0187910833        0.8328857681
 C          7.0343451837       -0.1674541234       -0.5125091183
 C         -1.7416476536       -0.5103838218       -0.5483533134
 C         -3.0973541363       -0.4578151456       -0.7843690079
 C         -7.3872059881        0.8417373417        1.0210620279
 C         -8.1568184993        1.8309499230        1.6017566196
 H         -8.2762789352        3.8950287168        2.1624634140
 H         -6.0387876729        4.4375038203        1.2695450130
 H         -4.6684765265        2.6875735018        0.2175192847
 H         -7.2496268788        0.6414158102       -1.8098886169
 H         -8.3667132969       -0.9940595888       -3.2686622062
 H         -7.7187828674       -3.3757579269       -3.1874224087
 H         -5.9562530748       -4.1105213474       -1.6220107730
 H         -4.8472429311       -2.4792873045       -0.1522729474
 H         -4.0793516082        0.9503680129        2.1255180119
 H         -1.6827109723        0.9217518112        2.5070408183
 H          0.1400677576       -0.0675114965        3.0413453716
 H          0.8802079540       -0.1106768521       -1.1991475598
 H          5.3840074183       -0.5606403492       -3.4521019704
 H          7.7200352102       -0.6307649039       -4.2169732402
 H          9.6008310395       -0.3983417806       -2.6775272321
 H         10.3793393461       -0.0466431211       -0.1297817997
 H          9.6701897163        0.2277306111        2.1912715071
 H          7.3016263227        0.2418014924        2.8483927903
 H         -1.1027030121       -0.9482982362       -1.2998420932
 H         -3.4924834741       -0.8248596004       -1.7202245648
 H         -7.7591536042       -0.1701963007        0.9526024913
 H         -9.1349082512        1.5860109005        1.9888233431
  61
        -97.82894781
 C         -6.5946984131        3.7463077924        1.5124726285
 C         -5.3301198275        3.6300756210        0.9589687867
 C         -4.9023358166        2.4228174765        0.4428935123
 C         -5.7386626896        1.3069350289        0.4787500687
 N         -5.2938159591        0.0835358086       -0.0402295381
 C         -6.1519781652       -0.7367652850       -0.7721986150
 C         -7.1747636687       -0.1857543891       -1.5456279747
 C         -8.0347012901       -1.0057893766       -2.2489235812
 C         -7.8867466869       -2.3826385910       -2.2046550995
 C         -6.8644307616       -2.9343270331       -1.4499576676
 C         -6.0034847994       -2.1238027636       -0.7361630154
 C         -3.9540737053       -0.2685323157        0.1603821264
 C         -3.3622938165       -0.0512619429        1.4056426823
 C         -2.0234697300       -0.3111428676        1.5973310664
 C         -1.2297062600       -0.7769126993        0.5488936703
 C          0.2143267714       -0.9177204201        0.7315171093
 C          0.7607718236       -1.4665319906        1.8827987568
 N          2.0626198200       -1.5313773753        2.1020591844
 C          2.9502951744       -1.0525793560        1.2593228556
 N          4.2440383219       -1.0687462106        1.5238628764
 C          5.1061023976       -0.5357407436        0.6721365599
 C          4.6472977132        0.0452122071       -0.5529516699
 N          3.3726123080        0.0440997426       -0.8571757865
 C          2.4806241137       -0.4662618687       -0.0077993845
 C          1.1153135603       -0.4359355915       -0.2318665340
 C          5.7933077970        0.5803294360       -1.2629830629
 C          5.9879612581        1.2554724420       -2.4427126713
 C          7.3004939614        1.6382943964       -2.7778596614
 C          8.3856997723        1.3654683642       -1.9789737631
 C          8.2179211238        0.6722398454       -0.7576700052
 C          9.2063240217        0.3134015491        0.1909861124
 C          8.8497425742       -0.3552877566        1.3385417608
 C          7.5233411174       -0.7139464353        1.6410578054
 C          6.5370183085       -0.3809714407        0.7403292579
 C          6.9123938531        0.3032165028       -0.4446199832
 C         -1.8349474670       -1.0329889408       -0.6814896186
 C         -3.1797067260       -0.7951856704       -0.8734170902
 C         -7.0085623823        1.4272957429        1.0409238066
 C         -7.4292816403        2.6410198908        1.5495983194
 H         -6.9273987986        4.6921949686        1.9120119019
 H         -4.6739929172        4.4871999560        0.9211969475
 H         -3.9186966935        2.3345032510        0.0050878577
 H         -7.2869145217        0.8875180954       -1.5923361567
 H         -8.8225887390       -0.5650000042       -2.8419802580
 H         -8.5615024739       -3.0199458181       -2.7556631322
 H         -6.7412904300       -4.0066575208       -1.4091085537
 H         -5.2158866033       -2.5581755536       -0.1378941601
 H         -3.9626644804        0.3393004078        2.2142389334
 H         -1.5738724452       -0.1195838158        2.5603610605
 H          0.1395947780       -1.8917705315        2.6580683385
 H          0.7549960178        0.0181763108       -1.1413519434
 H          5.1665631983        1.4951293670       -3.1005130892
 H          7.4529308955        2.1718306765       -3.7053859714
 H          9.3738149683        1.6828012852       -2.2798920832
 H         10.2395969033        0.5697815087        0.0080239861
 H          9.6200456079       -0.6189873534        2.0495489945
 H          7.2957179462       -1.2332740582        2.5589943164
 H         -1.2397078647       -1.4196094270       -1.4956584852
 H         -3.6358580999       -0.9874139291       -1.8336659293
 H         -7.6571401109        0.5642551658        1.0776558840
 H         -8.4149952234        2.7230339056        1.9833558594
  61
        -97.82753059
 C         -8.3292213764        1.8551383244       -2.2517537678
 C         -7.2153800341        2.6184050332       -1.9418165393
 C         -6.2032290767        2.0968364045       -1.1590927045
 C         -6.2912488035        0.7902526329       -0.6805150810
 N         -5.2746526919        0.2460693378        0.1131850691
 C         -5.6239574603       -0.6305256315        1.1534225224
 C         -4.8989303023       -1.8014250386        1.3721197042
 C         -5.2409493384       -2.6472584505        2.4090040004
 C         -6.3133169488       -2.3477004172        3.2334983796
 C         -7.0460045532       -1.1933316139        3.0105982538
 C         -6.7062452071       -0.3366589144        1.9811423622
 C         -3.9296382937        0.4769663023       -0.1616976079
 C         -2.9877938694        0.4309756818        0.8696158327
 C         -1.6428111997        0.5250709961        0.5998955479
 C         -1.1705312359        0.6980792182       -0.7058726843
 C          0.2583863827        0.6227718287       -0.9869623286
 C          0.7324208533        0.2135604899       -2.2301671349
 N          2.0035127551       -0.0299948798       -2.4818487878
 C          2.9425732317        0.0554172559       -1.5645598307
 N          4.1916166579       -0.2870487952       -1.8073370110
 C          5.0965318175       -0.2367760616       -0.8411630392
 C          4.7377212796        0.2440334571        0.4592197852
 N          3.5107414045        0.6189649255        0.7188265759
 C          2.5666048955        0.5260519625       -0.2208737485
 C          1.2360282221        0.8202317548        0.0081738692
 C          5.9041518306        0.1472122268        1.3182937217
 C          6.1772145301        0.4227916952        2.6352695167
 C          7.4689737080        0.1388224515        3.1172156720
 C          8.4584850092       -0.4012095551        2.3299747833
 C          8.2086983489       -0.6960209809        0.9698609605
 C          9.0902593377       -1.2660338475        0.0190807432
 C          8.6607411913       -1.4985873618       -1.2665580630
 C          7.3599324933       -1.1995269270       -1.7103443788
 C          6.4762997965       -0.6450144681       -0.8116053649
 C          6.9269228559       -0.4021532245        0.5119213685
 C         -2.1250697282        0.8370119020       -1.7184448540
 C         -3.4731980351        0.7208510605       -1.4592481309
 C         -7.4146670078        0.0256491022       -0.9958636866
 C         -8.4243116042        0.5588598657       -1.7723750916
 H         -9.1182216728        2.2674081228       -2.8620972703
 H         -7.1374293307        3.6322421047       -2.3059738116
 H         -5.3415212337        2.6979509438       -0.9082750894
 H         -4.0682742678       -2.0411713043        0.7245229738
 H         -4.6699726262       -3.5499628818        2.5691143871
 H         -6.5767943831       -3.0107152310        4.0434536915
 H         -7.8826854331       -0.9523255999        3.6495509982
 H         -7.2718878718        0.5681620396        1.8128050521
 H         -3.3219539525        0.2939477700        1.8874918905
 H         -0.9456440912        0.4326128670        1.4177987886
 H          0.0686794620        0.0291970859       -3.0618354586
 H          0.9728608752        1.2046878676        0.9801659618
 H          5.4307279828        0.8399273837        3.2937829677
 H          7.6830166283        0.3537029239        4.1545839212
 H          9.4329377846       -0.6070934401        2.7491870954
 H         10.0982506439       -1.5212405116        0.3116949177
 H          9.3489691848       -1.9372038162       -1.9753965261
 H          7.0700595094       -1.4085291838       -2.7283723447
 H         -1.8094799919        1.0262450706       -2.7331166884
 H         -4.1824070532        0.7884936606       -2.2708897924
 H         -7.4850004202       -0.9889529171       -0.6316592564
 H         -9.2867074299       -0.0456945629       -2.0118991871
