69
 energy: -107.901462498971 gnorm: 0.000063077325 xtb: 6.7.1 (edcfbbe)
C            8.83053958107209       -3.03262149458803       -1.60351727442665
C            8.83261248075542       -1.66565435652816       -1.83223244485775
C            7.78717652553129       -0.88208421053015       -1.38226936471685
C            6.72346891698497       -1.46350400216380       -0.69264622366416
C            5.58941148244307       -0.67006320190742       -0.24401362770163
N            4.34300679451342       -1.13551198893410       -0.36783213666981
C            3.53451763536318       -0.15367831622105        0.03750814514639
C            2.13992644001548       -0.20727107801827        0.06193361713615
C            1.44359066454629       -1.36769160047234       -0.39916151910803
C            0.08943499295282       -1.35510225192721       -0.45672084747335
C           -0.64862651593807       -0.19994806571643       -0.04693213838193
C           -2.07375507556215       -0.14669878454550       -0.03625743376624
C           -2.77326573769548        1.08372185544519       -0.03565928685988
C           -4.14074329232645        1.13588591692977       -0.04377855626482
C           -4.90478761719545       -0.04207975306822       -0.03338297437129
N           -6.29489787157873        0.00835525433263       -0.02697613262572
C           -6.96479578154238        1.01539591633305       -0.72862671682117
C           -6.47692668459529        1.46326531188617       -1.95740340909651
C           -7.13982721858522        2.46030164172094       -2.64501115619414
C           -8.29590794753333        3.02179654402286       -2.12629195028691
C           -8.78552779771462        2.57863667983368       -0.90777508832416
C           -8.12790146081606        1.58585361382104       -0.20894636291319
C           -7.02572692044849       -0.94694563366497        0.68653568879453
C           -6.55582052648766       -1.42390767568250        1.91136815086197
C           -7.27785566232279       -2.37083547856754        2.61016188225855
C           -8.47574825460713       -2.85269312695908        2.10653794787752
C           -8.94771963021105       -2.38017488832671        0.89205188696721
C           -8.23144169520765       -1.43699050401627        0.18222156138446
C           -4.22966950486894       -1.27294314873245       -0.02531351118118
C           -2.86224520214726       -1.32223629174386       -0.03168519798971
C            0.14764338782383        0.87398284672953        0.44289222142961
N            1.43665296861902        0.86738418304223        0.51055607456484
O            4.22522202106300        0.95995865180022        0.42727728148052
C            5.54497398478583        0.63947755796699        0.28417010635361
C            6.53204579162257        1.56434712039041        0.73755163106713
C            6.16630111320697        2.90481074625181        0.96031632653178
C            7.09493105875998        3.81956576120218        1.40258063926732
C            8.40538226807314        3.42853943076472        1.64555684285911
C            8.77268152858683        2.10250628861573        1.45486163621701
C            7.85504141895469        1.17601071853693        1.01154201807903
C            6.71455118169653       -2.84242074818169       -0.49066569721395
C            7.76659499568313       -3.61892104136835       -0.93687455598716
H            9.65286545971918       -3.64003546025848       -1.95221924451578
H            9.65200441040041       -1.20878023212139       -2.36793783130866
H            7.78047487047621        0.18022076083940       -1.57824344948777
H            2.03493358949805       -2.19844683255311       -0.74727954197612
H           -0.43919572770767       -2.20441407295908       -0.86272573425563
H           -2.21810020477742        2.00869640788671       -0.04837863629671
H           -4.64665949182990        2.09067355121890       -0.04087212358594
H           -5.58397034447867        1.01586901703708       -2.36832325172539
H           -6.75564474571259        2.79568762600951       -3.59677391150210
H           -8.81197740489576        3.79949190366557       -2.66798912244576
H           -9.68230433534507        3.01541171215373       -0.49417141758624
H           -8.50275575914982        1.25078533255487        0.74703380092499
H           -5.62955449589709       -1.03786442627226        2.31060502486097
H           -6.90668750763890       -2.72905877153353        3.55876172406631
H           -9.03796035002328       -3.59134231340026        2.65690003940629
H           -9.87722597511254       -2.75524736525442        0.49032064173647
H           -8.59338512633826       -1.07930560988033       -0.77053885711171
H           -4.80488625155639       -2.18772069393814       -0.02951886577074
H           -2.37708523150612       -2.28561028181896       -0.01959350590278
H           -0.32860485734964        1.74332166426061        0.87811451422665
H            5.14656992864800        3.20200343876739        0.76924287897833
H            6.80214127425251        4.84734363156102        1.56140513192838
H            9.13217420789464        4.14825913247476        1.99122744264480
H            9.78556414563514        1.79052824393761        1.66490213998742
H            8.14205619189601        0.14226715615012        0.89877664212232
H            5.87554552246814       -3.28571486328254        0.02295132897268
H            7.75780306590640       -4.68579550530442       -0.76739507640749
