69
 energy: -107.977416381356 gnorm: 0.000026576105 xtb: 6.7.1 (edcfbbe)
C            8.88158060012681       -3.40097906390252        0.26988926535562
C            8.94518386654968       -2.17322091845801        0.90920436845020
C            7.88670886063023       -1.28837610623193        0.82712319868053
C            6.74997884497445       -1.62440669483656        0.09472972162970
C            5.60825600197596       -0.72430406279772        0.00810494485937
N            4.33664776774562       -1.21552939731656        0.00143039692256
C            3.55137108966952       -0.17349757058461       -0.01168711752521
C            2.10596232284031       -0.20936751017600       -0.01210843932291
C            1.43968270274905       -1.43858965190518       -0.00486096840509
C            0.06154597750113       -1.43892251765373        0.00324275586085
C           -0.62987831445919       -0.22380336563048        0.00018137411310
C           -2.09102167833603       -0.16566942891833        0.00596470693515
C           -2.76731907241902        0.82784522734523        0.71529459253975
C           -4.14367164934926        0.88363270383801        0.72335990409089
C           -4.89657740513339       -0.04877190275351        0.00614777547214
N           -6.28917245273554        0.01091846373805        0.00513671162523
C           -6.94043944173608        1.25104678888109        0.04162362142673
C           -6.43026361323397        2.33916112388347       -0.66560337768410
C           -7.07649465321915        3.55931078868857       -0.62516095038210
C           -8.24076107140612        3.71294975350092        0.10957353219687
C           -8.75429216337429        2.63347499147355        0.80955013222529
C           -8.11085635753813        1.41143329623962        0.78222312962191
C           -7.04543849880689       -1.16761276158991       -0.03495018796033
C           -6.63177547506429       -2.29809755486792        0.66896559188995
C           -7.38119332187350       -3.45758386309102        0.62479581926503
C           -8.55426893999310       -3.50763341074839       -0.11027647173134
C           -8.97230840411968       -2.38545801038060       -0.80665078136305
C           -8.22543898425392       -1.22387515000105       -0.77573083918147
C           -4.22438900312176       -1.04126524777651       -0.71033334125321
C           -2.84808777967827       -1.09977510028321       -0.70227773293713
C            0.14536114453459        0.94077092011486       -0.01508979722138
N            1.45918191905607        0.95537036025298       -0.01883144944577
O            4.21935721046696        0.99003830400094       -0.02200426848905
C            5.53357050833676        0.65955544440370       -0.02121207669716
C            6.51580005282659        1.72346862723538       -0.10063903282844
C            7.76714832902165        1.51418000899434       -0.68160540622578
C            8.67864142996427        2.54950177785120       -0.75313583992439
C            8.35674442067644        3.80307547912555       -0.25686442976644
C            7.10864579634474        4.02239599107202        0.30288291420411
C            6.19053516850727        2.99314380110902        0.37888884203395
C            6.68293773650916       -2.86924349443479       -0.52641930369934
C            7.74577700381213       -3.74855468365468       -0.44270051893355
H            9.71283479947137       -4.08771176094808        0.33425092169758
H            9.82317611247773       -1.90579710431746        1.47908451466887
H            7.93167549760035       -0.33903021576818        1.34045218476094
H            2.01687037874043       -2.34844930105424        0.00357611176852
H           -0.48384196081663       -2.37129365167284        0.03355107238465
H           -2.20572076589934        1.54474579039328        1.29550106199295
H           -4.65050512850795        1.64796771160497        1.29387358339918
H           -5.52864430252684        2.21859125481665       -1.24825662687293
H           -6.67228359628443        4.39373769971791       -1.17915394990304
H           -8.74465921095386        4.66710301528119        0.13593521274526
H           -9.65903297023333        2.74531660466507        1.38876200609117
H           -8.50802084370359        0.57309724732707        1.33571742987393
H           -5.72344988102713       -2.25764014105844        1.25229899888646
H           -7.05094156754131       -4.32561668145799        1.17624224074060
H           -9.13886852046856       -4.41449722664301       -0.13957751922763
H           -9.88336635645761       -2.41661880106635       -1.38591701285997
H           -8.54856192634468       -0.35268994098876       -1.32663532412305
H           -4.79300705562673       -1.76087361750874       -1.28086241029875
H           -2.34916587794784       -1.86122999348125       -1.28348072852612
H           -0.32538550990375        1.91505281307444       -0.04437392938013
H            8.01303371654124        0.54446448949027       -1.08668271125830
H            9.64505812936205        2.37944623758979       -1.20450732590705
H            9.07455559990024        4.60793475700582       -0.31320974106584
H            6.85023482220930        5.00035229826979        0.68171664503579
H            5.21545419833183        3.15836857373964        0.81183831738065
H            5.78925795375415       -3.12977699647238       -1.07216816021886
H            7.68887891764567       -4.70943541909201       -0.93317711231577
