94
 energy: -141.422953849481 gnorm: 0.000133457745 xtb: 6.7.1 (edcfbbe)
C           -5.69626766208041        4.08345108808771       -0.90553164951027
C           -5.97981493978900        2.60832645792049       -0.56377248989153
C           -7.48214277652712        2.30518455978823       -0.72099949995311
C           -5.20400296527440        1.73033307453162       -1.52396822947740
C           -5.44856495029786        1.82477151688946       -2.88711209319667
C           -4.76259353876869        1.05485107657192       -3.80846353184843
C           -3.79799257162499        0.16249090846300       -3.36743175868592
C           -3.53055324304696        0.04786337598250       -2.02211098046631
C           -4.22932846288549        0.82175910800648       -1.08369656519408
N           -3.93999048189257        0.69500708626231        0.26148626003838
C           -2.90666974428071       -0.20319083057339        0.65113919294747
C           -1.66327543625798        0.28577557428988        1.03894465976680
C           -0.64316114518277       -0.58994793881247        1.33315247412145
C           -0.83243419347695       -1.97610242245813        1.20785947230238
C            0.29977329244542       -2.87660051438740        1.45714351079687
O            1.25486556856576       -2.55124824251777        2.17191036891738
C            0.20614105013337       -4.19260691901168        0.79427719872031
C            0.48430952435802       -5.37976969685429        1.46557372766905
C            0.24024677203465       -6.58910543269580        0.84665584787900
C           -0.28288803476777       -6.62733501024535       -0.44390223837285
C           -0.51134992656914       -5.45734394750093       -1.13953067849080
C           -0.21732743759522       -4.23313761128008       -0.54594226925763
C           -0.29465349373861       -2.96198934520109       -1.29283890882428
O           -1.24543691415476       -2.67328470527928       -2.02902436253185
C            0.84697396267125       -2.05964416382093       -1.10017093354718
C            2.12517640046088       -2.52779893542940       -0.76036248799593
C            3.15264603285197       -1.64745020704777       -0.52787704315681
C            2.93356642025879       -0.27328436884303       -0.64435091565406
N            3.96793778327045        0.64324205504255       -0.30093947620583
C            4.66839153261270        1.27674979022796       -1.30305483947407
C            4.42359530045697        0.92925949489906       -2.63933120403551
C            5.10153271958572        1.54806358529102       -3.66473552571302
C            6.04180347163832        2.52571705706773       -3.37923557102968
C            6.29781956178506        2.86029053328997       -2.06208015794157
C            5.63309401609625        2.25136442090691       -1.00697297952883
C            5.96065020496469        2.64624304605442        0.41754621144721
C            5.64237134376368        4.14243856689691        0.60016570278357
C            7.45859666640319        2.38692059143615        0.66721045646123
C            5.15593301234305        1.85221457460536        1.42602097065519
C            5.34394919488408        2.07829617035510        2.78262827914805
C            4.63212950888176        1.38597347414125        3.74510471863001
C            3.70173106835253        0.43608154558275        3.35337298162063
C            3.48901202616686        0.19242315189497        2.01547919825206
C            4.20902210720472        0.89262306754407        1.03627907139282
C            1.69902086888721        0.20033282454105       -1.07650870557311
C            0.67230331903317       -0.68331444640704       -1.31958683896256
C           -2.11714945439409       -2.45325498019022        0.90770674409489
C           -3.13856095693573       -1.58018508469391        0.62693080472582
C           -4.60481770622775        1.41958153000898        1.22610157480452
C           -4.30739677250106        1.20206077744942        2.57917572357585
C           -4.94601526072255        1.91742228358480        3.56630876947060
C           -5.90060815767876        2.86299610610862        3.22587514321680
C           -6.21164368050109        3.06666172651703        1.89397562832211
C           -5.58663748386801        2.35896205604285        0.87686031303783
H           -4.63363336956774        4.29149122603065       -0.79580847044071
H           -6.24627447596280        4.74654695184604       -0.24372348807517
H           -5.98545324318096        4.30591626196377       -1.92865363927158
H           -7.67690797127155        1.26323144823059       -0.47450363934687
H           -7.80810308670268        2.48287871051399       -1.74170887425645
H           -8.07558336111511        2.93104263409308       -0.06065138226924
H           -6.19381976971403        2.51806635093635       -3.24657641778603
H           -4.97931148358712        1.15275294286853       -4.86126679135817
H           -3.25015587517170       -0.44896481065371       -4.06701352905434
H           -2.78342704806040       -0.65863865321827       -1.69834624879159
H           -1.50388458254628        1.35356612711855        1.08889413532884
H            0.32683552708306       -0.22532533164044        1.63339788326608
H            0.85452463636091       -5.33444056249633        2.47917458145053
H            0.43663458416273       -7.51184256630158        1.37293401385324
H           -0.49167648711956       -7.57941087097369       -0.90968502200074
H           -0.88149008284063       -5.47244121753236       -2.15406121904153
H            2.30159823979530       -3.58842747648620       -0.66449459042785
H            4.12992719654761       -2.00496734840330       -0.23951275640779
H            3.69775273921438        0.16239102369038       -2.85935109998063
H            4.89894759896174        1.26696134120830       -4.68692204794310
H            6.57635951117681        3.01984718549859       -4.17586198272010
H            7.03826233711777        3.61848007047806       -1.85746307285851
H            5.88837797761564        4.47005437698593        1.60621757381602
H            4.58186962238531        4.31909645727741        0.43085059040342
H            6.20784819947138        4.74664777195495       -0.10373052291150
H            8.07207224755246        2.95845524971548       -0.02332118934702
H            7.67881222232364        1.33007639791753        0.52968958671022
H            7.73640753490147        2.66621743430229        1.67936455303899
H            6.06388105737805        2.81571816780913        3.10386844872077
H            4.80385478225792        1.58691006793955        4.79157797672770
H            3.13831416872359       -0.11997570487793        4.08606678951296
H            2.76985921480883       -0.55838689990243        1.73021635254655
H            1.55144088446415        1.26385142059719       -1.19984083620860
H           -0.29215251874226       -0.33103781479449       -1.65104582925773
H           -2.30385781526935       -3.51615694549723        0.88288346033360
H           -4.12181958826659       -1.94648017054262        0.37169473297055
H           -3.57203000541609        0.45907086267062        2.84438757457007
H           -4.70171009087355        1.73615861051668        4.60187249574580
H           -6.40469319630383        3.43206724943976        3.99174763306959
H           -6.96493951607455        3.79907183282243        1.64684214311746
