94
 energy: -141.416796473530 gnorm: 0.000180280513 xtb: 6.7.1 (edcfbbe)
C           -5.58930937537187        3.82858372263829        0.90845329355918
C           -5.45275757751630        2.63018531619301       -0.04976466651088
C           -6.51034490214067        2.71766427526996       -1.16629752935190
C           -4.08054723851758        2.66508176759072       -0.68819347272297
C           -3.70242267648419        3.76544548687574       -1.44526874241715
C           -2.47751381505224        3.83010380470700       -2.08353958938035
C           -1.60510857761678        2.75752576779997       -1.99162185178070
C           -1.95143945768366        1.65548423681234       -1.24307618431186
C           -3.17487719131275        1.60212040530660       -0.56167837299890
N           -3.47484426041418        0.49547073745403        0.20773382841352
C           -2.48854740998943       -0.51626542884071        0.36998703644077
C           -1.35531792282418       -0.26645718761652        1.14228801687556
C           -0.40259921903350       -1.24195070299982        1.30082985456776
C           -0.54490744705761       -2.50345396658218        0.69123746793134
C            0.45775606383319       -3.51733529089605        1.01009873022466
O            1.20495544534398       -3.37610847064269        2.00022016642769
C            0.54983172196682       -4.71831687793154        0.17784283173284
C            0.78622349654317       -5.94307913265667        0.81540739192272
C            0.74768325990398       -7.12063154365230        0.10807349989705
C            0.48212692965207       -7.10688160869457       -1.26368692513379
C            0.31656057909547       -5.90932711899569       -1.91734751340436
C            0.40862945265644       -4.69556345285272       -1.22495872842024
C            0.41264128717983       -3.46096948361384       -2.01713490643140
O           -0.19218833274935       -3.36809350155779       -3.08470962101537
C            1.19302748451691       -2.32742909014445       -1.47944683303910
C            2.38787106354461       -2.48463094317982       -0.76910241877417
C            3.05337082815142       -1.39587568612528       -0.26538753743011
C            2.53944869000520       -0.09566220199681       -0.43126385587090
N            3.14286196103549        0.99668171609874        0.16039539190848
C            4.29762581959451        0.91911886667574        0.95829223792593
C            4.38541024925180        0.02490259902171        2.02050410705095
C            5.51880293696623        0.00779834219910        2.81050091550571
C            6.54962190373528        0.89599572618057        2.55802720023349
C            6.43988079904146        1.81871686410241        1.53026732385862
C            5.31671191866745        1.85008576679994        0.72012983905082
C            5.10553045493336        2.82879950848806       -0.42179468007290
C            5.28072238183519        2.08219808576115       -1.76017361805369
C            6.10043044308452        3.98852520075324       -0.39068262679512
C            3.66609038920834        3.29573799494108       -0.30220079258325
C            3.24787838276979        4.60836534062961       -0.44865739232610
C            1.91097637296216        4.94863001506979       -0.31803551629571
C            0.97259916714917        3.98135147986997       -0.00284698725299
C            1.36861015525657        2.66768058468498        0.15639963046121
C            2.70256302019453        2.31762812545410       -0.02667391285179
C            1.44999581171064        0.06610600557852       -1.29904326984490
C            0.78846313342536       -1.02772933512218       -1.80249666144412
C           -1.70257794331774       -2.74805670149175       -0.06313874484248
C           -2.65388913023762       -1.76998089178036       -0.22613915584445
C           -4.68801545637162        0.36808241761611        0.85655711118580
C           -4.92879048570439       -0.75225711742154        1.66364473945039
C           -6.13619463025110       -0.91691972903740        2.30399486464107
C           -7.12949822560694        0.03843330037487        2.16114238026489
C           -6.88457720686123        1.16178635309311        1.39357723622822
C           -5.67606305018243        1.35668543875307        0.73910624471157
H           -6.57154863607643        3.84408255315171        1.37178419498457
H           -5.44888976123121        4.76641057088953        0.37858010799687
H           -4.83997036170016        3.76163985455802        1.69502455064065
H           -7.51394808734995        2.70898316155694       -0.75091557949606
H           -6.40904271541811        1.86851592086501       -1.83934967579867
H           -6.38853677029381        3.62953944233385       -1.74399350719397
H           -4.38131890355355        4.59830049921803       -1.54722314521534
H           -2.21313107336800        4.70278983249701       -2.66069652197833
H           -0.65713843391936        2.78109278826681       -2.50759587369922
H           -1.28244691351699        0.81290034642984       -1.18572526931552
H           -1.24700981052215        0.69574950692861        1.62373964363280
H            0.47185634298506       -1.07015968706301        1.90972798840105
H            0.95572782119929       -5.93715199898854        1.88203499004715
H            0.90431706796258       -8.06057456847060        0.61676043024619
H            0.43061730818286       -8.03543168168690       -1.81269059983747
H            0.15509870034023       -5.86873627210587       -2.98485233520832
H            2.79886648687095       -3.47155600550928       -0.61876480752373
H            3.98913298991001       -1.54597376410586        0.24781239094679
H            3.55976023621402       -0.63499692808620        2.23847009851699
H            5.58799261097492       -0.69054195398383        3.63024607820959
H            7.43712034100517        0.88456772525060        3.17236514471230
H            7.24695091621505        2.51474607395286        1.36959090701709
H            5.09352529607292        2.76166740311257       -2.58906035852391
H            4.59711390128775        1.24197902817072       -1.84597414586387
H            6.29783036746948        1.70469219558588       -1.84078890052637
H            7.11597789597469        3.61350928370048       -0.48857704655781
H            6.01688355596264        4.55019458760446        0.53705263510728
H            5.92197192384789        4.65789931035978       -1.22846781318059
H            3.96151139593633        5.38510244411414       -0.67008812212412
H            1.60661104633554        5.97626289298477       -0.44657917233003
H           -0.06574372849947        4.24673037458196        0.12748215394972
H            0.65370290857640        1.91209838529045        0.44276671270741
H            1.13621297359347        1.05557065525037       -1.59109556830095
H           -0.06189421896702       -0.90551124731465       -2.45675228828330
H           -1.85776659482662       -3.71595031762130       -0.51487309997935
H           -3.54079636633230       -1.96284175831019       -0.81185816602497
H           -4.15449379179997       -1.49206659743541        1.78832908401269
H           -6.30106050034610       -1.78967690283135        2.91708576152676
H           -8.08210519778763       -0.08358726117367        2.65306958658212
H           -7.66072188079999        1.90690000445363        1.30842545668720
