94
 energy: -141.492275935127 gnorm: 0.000054884996 xtb: 6.7.1 (edcfbbe)
C           -5.55484648970570        3.81285814119577        0.95033576059595
C           -5.42670624981210        2.63052269062717       -0.02761612041171
C           -6.47701122593745        2.74716991722644       -1.14727972349125
C           -4.04919746671576        2.66215700412990       -0.65916089669457
C           -3.66558784680756        3.76838502563829       -1.40590790775612
C           -2.44313239773168        3.83403725824852       -2.04750851787743
C           -1.58231670948803        2.75406236865934       -1.97088536087648
C           -1.93618018524583        1.64647669967355       -1.23039352823867
C           -3.15218401336295        1.59613588949944       -0.54285033738496
N           -3.46540555470341        0.47377109522835        0.21274218873464
C           -2.48338652701740       -0.53117038810998        0.38581235193328
C           -1.33870785927963       -0.25808179232264        1.13135264920664
C           -0.38612725381497       -1.23601740564542        1.31194445278342
C           -0.55144390730836       -2.50351511423352        0.75110193739072
C            0.49340057361741       -3.51966522285401        1.02142217200784
O            1.24921594849686       -3.41109342100515        1.96820274825629
C            0.53956828190255       -4.72496729524766        0.14488854126119
C            0.66436577694805       -5.95772643702322        0.78017627630201
C            0.68282044630632       -7.13335867530671        0.05294168053326
C            0.57861958992859       -7.09181881350633       -1.32836404028354
C            0.47208543690918       -5.87327243476691       -1.97254767526175
C            0.46876918496273       -4.68194432516752       -1.25367451237001
C            0.38248502414600       -3.40804646280080       -2.02733655886113
O           -0.34863299314903       -3.32088930643685       -2.99817080289735
C            1.20052815130185       -2.29135971422761       -1.54268274231208
C            2.35306963511825       -2.45898885156103       -0.77073017907385
C            3.00281277575737       -1.37330934303092       -0.23403891056854
C            2.50838404034854       -0.07234718035118       -0.41753585571465
N            3.09017690337756        1.01056348823368        0.19527882488279
C            4.24635976604028        0.93247865263573        0.99959581470736
C            4.31211224995963        0.07027863597782        2.08712428278951
C            5.44360388823147        0.05095425441393        2.88097627088916
C            6.49302302253495        0.90901600515738        2.60540988115222
C            6.40593548617383        1.80106006643496        1.54954368809709
C            5.28605558087191        1.82968085132522        0.73354935667410
C            5.09923131726739        2.77999412008753       -0.43707890887288
C            5.25722304452535        1.99198688128587       -1.75331958489260
C            6.12210271025158        3.91543426617499       -0.43836796818375
C            3.67098674078965        3.28577255406412       -0.33200299608511
C            3.28745433879937        4.60649623445770       -0.50555694390509
C            1.96020252833890        4.98338384263934       -0.38317085837090
C            0.99669922078254        4.04770146398879       -0.05117498407346
C            1.36044156354958        2.72815537201140        0.13868214758784
C            2.68391590879478        2.34210575969902       -0.03234336345920
C            1.45043282297180        0.09723173548060       -1.32651704293247
C            0.81609261315653       -0.98910705251620       -1.87308979852108
C           -1.70595700830673       -2.77879443538130        0.02023064354254
C           -2.65925334448543       -1.79730518407499       -0.16625755041140
C           -4.69278411912417        0.34601239151972        0.85188760951462
C           -4.95200117413145       -0.77411801876854        1.64735875190260
C           -6.16799481154935       -0.93441876880596        2.27710531973029
C           -7.15014778878310        0.02868996197628        2.13508855343207
C           -6.88309029694892        1.15575148008853        1.38138241777504
C           -5.66640530009515        1.34420925303753        0.73932949100484
H           -6.54028450830170        3.83442446145638        1.40712127353784
H           -5.39673641050319        4.75844399935056        0.43902916336829
H           -4.81253941260381        3.72112910071217        1.74125177325953
H           -7.48365760798036        2.73727367175035       -0.73883455734522
H           -6.37718555838104        1.91006316319518       -1.83568906162069
H           -6.34666367138331        3.66878245692623       -1.70772419040712
H           -4.34023744200372        4.60629196432404       -1.49633349133693
H           -2.17399088469431        4.71155819467647       -2.61544392565282
H           -0.63620992583967        2.77220074827527       -2.49147683058672
H           -1.27118184922868        0.79895763314278       -1.19065016582867
H           -1.21702938399368        0.72108575748810        1.57185498855071
H            0.50154353771142       -1.04412549065879        1.89570405256408
H            0.73618330738119       -5.97531061803484        1.85776539217321
H            0.77534913384184       -8.08047180668287        0.56310848670344
H            0.58536249397058       -8.00666755853515       -1.90181285868600
H            0.39885743854754       -5.82051515514730       -3.04882597855830
H            2.76036381314549       -3.44613743919996       -0.60934207177902
H            3.90773628688728       -1.53215544752922        0.32948539277244
H            3.47462069642422       -0.57003931765140        2.31880274846378
H            5.49677480646000       -0.62527184919731        3.72048559606055
H            7.37874366454128        0.89704340383810        3.22253884234855
H            7.22801365379446        2.47477301222940        1.37059881798756
H            5.08568063083182        2.65209407403843       -2.60109776505819
H            4.55477438530572        1.16556302080722       -1.81694789125898
H            6.26551318516240        1.58905902592576       -1.82275559842678
H            7.12839837815090        3.51345043341169       -0.52563613698473
H            6.05281295040479        4.50506388300559        0.47306232935739
H            5.95912791994990        4.56514846969280       -1.29466786145538
H            4.02102423958091        5.35991097791237       -0.74225336762575
H            1.68235279663154        6.01556733220653       -0.53413547014098
H           -0.03558932327172        4.34020241787965        0.06717770291172
H            0.62297829533128        1.99603901988232        0.42914322124454
H            1.14209384633159        1.09054684764560       -1.60947926797507
H           -0.01266426476502       -0.85901571024957       -2.55355101759650
H           -1.86894788228026       -3.76249377059179       -0.39332633454098
H           -3.55172929957178       -2.00613057765799       -0.73694946289934
H           -4.18854213395588       -1.52450220324546        1.78108667504825
H           -6.34332088087251       -1.81183270720049        2.88149922184133
H           -8.10883558997701       -0.08785478162962        2.61680485402263
H           -7.64899562877594        1.91179074805248        1.29733091419086
