94
 energy: -141.490285096955 gnorm: 0.000070669755 xtb: 6.7.1 (edcfbbe)
C           -5.47436870879612        3.86113734300152        0.41131474647570
C           -5.18257711133679        2.68549328293341       -0.53932144180980
C           -5.91621736350208        2.88553803530345       -1.87799906839232
C           -3.69338183131609        2.63233969203691       -0.81519436472565
C           -3.07101030195285        3.73025763147555       -1.39499610009957
C           -1.72774112070345        3.72799781443528       -1.71847094581430
C           -0.98516097647912        2.58245839759804       -1.49914350540538
C           -1.58015939599744        1.47699284336800       -0.93006890083449
C           -2.92290232737310        1.49820117432278       -0.54110303809011
N           -3.48292040561843        0.38219344585594        0.07380165067714
C           -2.64862488135873       -0.70430933906178        0.41438866565858
C           -1.60943556089605       -0.52404506698018        1.32674188145593
C           -0.79369364663392       -1.58119191541828        1.65984054491675
C           -0.99755060285536       -2.84390973505946        1.09909002274902
C           -0.09753973187906       -3.93569437445777        1.52959169909197
O            0.55383566326276       -3.85683467921463        2.55362181183344
C           -0.04199337601192       -5.17066995101438        0.69604488158247
C           -0.05308975813031       -6.38609877782055        1.37554069384194
C           -0.02631579945157       -7.58561534349477        0.68907813340658
C            0.01494850889908       -7.58546866997985       -0.69612105611729
C            0.04254804583414       -6.38580491187684       -1.38229420080287
C            0.03239503742236       -5.17055540257874       -0.70248155723003
C            0.08978144356305       -3.93536521154732       -1.53556698004468
O           -0.56143797202782       -3.85486435874179       -2.55955558706275
C            0.99167812681021       -2.84551753909420       -1.10424433948688
C            2.05102210224645       -3.03434855546378       -0.21702157908581
C            2.86033210941986       -1.97208970717335        0.13290419899407
C            2.64630760032144       -0.70950543342884       -0.41707206573454
N            3.48256959500384        0.37492322129984       -0.07503768576764
C            2.92446456925136        1.49236657206494        0.53903215210984
C            1.58085422282713        1.47506099450638        0.92513345072797
C            0.98764557633684        2.58244873400846        1.49233419143981
C            1.73292977099977        3.72604829474021        1.71259319258126
C            3.07706995325602        3.72413619535860        1.39278535347096
C            3.69772977596724        2.62414140114645        0.81509261819025
C            5.18824047250172        2.67177573574207        0.54531173533517
C            5.91670016229748        2.86452548602328        1.88791790013418
C            5.48957241597144        3.84891889272371       -0.40043756374044
C            5.68424374871048        1.39623849906406       -0.10654276505038
C            7.02797971651148        1.28689317062015       -0.44033461169817
C            7.53595212553163        0.18078650240907       -1.09391057443088
C            6.67498506416366       -0.83822674633482       -1.45815602515001
C            5.33805786918140       -0.75840325214737       -1.13106902607570
C            4.83029012807578        0.33418888195576       -0.42124366648551
C            1.60766509858707       -0.52653516923960       -1.32952930486225
C            0.79013021564271       -1.58191809266225       -1.66381896427288
C           -2.05729734226163       -3.02996044005607        0.21178178462593
C           -2.86487782384983       -1.96592869190355       -0.13689325136120
C           -4.83020350654798        0.34485347701823        0.42205136019387
C           -5.34026651747707       -0.74774398004782        1.13020131883036
C           -6.67675981567470       -0.82373659912527        1.45999798655954
C           -7.53493888517149        0.19924980201281        1.10035472923249
C           -7.02460517272145        1.30501550506812        0.44805319579328
C           -5.68132566085971        1.41031823775948        0.11115542258654
H           -5.14113293315999        4.80131414676302       -0.01893225770059
H           -4.95352990437890        3.71131620687662        1.35529337459750
H           -6.53808484677613        3.94084651497210        0.61660926025659
H           -5.59369050609137        3.80236164829250       -2.36365915086568
H           -6.99086016687593        2.93945361424853       -1.72773855700874
H           -5.70369350319925        2.05145328443442       -2.54416043174647
H           -3.64944299791493        4.61732182977686       -1.60378260762612
H           -1.27202785354511        4.60359289711653       -2.15450889522716
H            0.05932686715045        2.54926528957496       -1.77034471909087
H           -0.99846307942709        0.58002744665085       -0.79075082357920
H           -1.45813092852224        0.44810439573620        1.77155543996901
H            0.01312774864902       -1.45778081150784        2.36711937299002
H           -0.09268049891532       -6.36871114475288        2.45468936071159
H           -0.04049789855428       -8.51804118759018        1.23300543583484
H            0.02873573818093       -8.51777803833300       -1.24025980905298
H            0.08230180633046       -6.36815696494695       -2.46143449907261
H            2.25736275125700       -4.01233651993921        0.19037464463576
H            3.67048301408700       -2.11468967444593        0.83224856408825
H            0.99700138335888        0.57961326255294        0.78519637432626
H           -0.05751682704780        2.55229029665689        1.76125517810527
H            1.27860077692527        4.60321846919371        2.14688240059471
H            3.65763711676388        4.60944766591969        1.60303079160826
H            5.59621391221017        3.78152699936379        2.37463645253914
H            6.99228202013408        2.91360747988537        1.74269838229105
H            5.69707394760525        2.02958894895090        2.55071709407872
H            5.15936177603794        4.78943088295144        0.03136968884115
H            4.97182941207220        3.70461575798061       -1.34696750335895
H            6.55447540926410        3.92413392271177       -0.60118818646178
H            7.70297632100433        2.09047715863002       -0.18798189500532
H            8.58699267008969        0.12521530090981       -1.33217893457748
H            7.03970598104829       -1.69712665364531       -2.00131668693243
H            4.67657558879042       -1.55176137293616       -1.44168860375260
H            1.45819404007915        0.44628638416739       -1.77348243925949
H           -0.01634057740205       -1.45641146526405       -2.37113204119681
H           -2.26528336088568       -4.00713893566533       -0.19672176972195
H           -3.67534799190435       -2.10643091118194       -0.83629331508441
H           -4.68089852910670       -1.54418021661455        1.43741514420208
H           -7.04329426961469       -1.68271936925509        2.00180990645904
H           -8.58557057067226        0.14693953763197        1.34118604564178
H           -7.69730255841533        2.11165360598993        0.19930706189323
