  94
       -141.49219972
 C         -5.7329014977        3.7690831084        0.8548070117
 C         -5.5129912053        2.5711665384       -0.0870350636
 C         -6.5198290655        2.6146813731       -1.2510868231
 C         -4.1133571307        2.6475893774       -0.6641707934
 C         -3.7419040306        3.7619527835       -1.4049724285
 C         -2.5002271594        3.8668450241       -2.0030641206
 C         -1.6061976271        2.8174944570       -1.8888464990
 C         -1.9483674790        1.7018899321       -1.1546925514
 C         -3.1853254718        1.6130472047       -0.5095292875
 N         -3.4886648785        0.4853473165        0.2428813438
 C         -2.4995142723       -0.5109184519        0.4204953731
 C         -1.3548339690       -0.2312068266        1.1638109465
 C         -0.3965819362       -1.2040987469        1.3429101173
 C         -0.5565572163       -2.4732857200        0.7842955599
 C          0.4962993052       -3.4826085181        1.0474906869
 O          1.2621622501       -3.3679628429        1.9854015873
 C          0.5369926322       -4.6894211634        0.1726410491
 C          0.6671148770       -5.9222080823        0.8063580836
 C          0.6789093200       -7.0973338607        0.0779414217
 C          0.5619235619       -7.0549710764       -1.3023078321
 C          0.4498678185       -5.8360546946       -1.9450910349
 C          0.4536234913       -4.6455299422       -1.2252080248
 C          0.3622807872       -3.3690123262       -1.9941008841
 O         -0.3795468824       -3.2747898710       -2.9559770673
 C          1.1930611706       -2.2591649585       -1.5148344318
 C          2.3581635286       -2.4402132079       -0.7652732455
 C          3.0273577041       -1.3629419051       -0.2357104656
 C          2.5402758106       -0.0570553130       -0.4023245426
 N          3.1448632854        1.0177161760        0.2031544823
 C          4.3177402353        0.9258870796        0.9813697777
 C          4.4012853383        0.0555404834        2.0612532769
 C          5.5504623131        0.0214636660        2.8288168635
 C          6.6003936126        0.8729821777        2.5353037894
 C          6.4959844561        1.7739515406        1.4886329630
 C          5.3578672981        1.8176198524        0.6988826388
 C          5.1522727187        2.7789107702       -0.4596266716
 C          5.2778988791        2.0009001787       -1.7852844008
 C          6.1820066709        3.9081650563       -0.4723452836
 C          3.7297489558        3.2926589845       -0.3206513039
 C          3.3510279340        4.6169087017       -0.4774315502
 C          2.0289718982        5.0012139589       -0.3254418889
 C          1.0665294716        4.0693984046        0.0205156355
 C          1.4258404217        2.7465159151        0.1949135798
 C          2.7430222460        2.3532976475       -0.0065684566
 C          1.4644084622        0.1258797105       -1.2875065561
 C          0.8112597226       -0.9521282227       -1.8286653913
 C         -1.7127491337       -2.7561565215        0.0586418484
 C         -2.6706490981       -1.7796417776       -0.1276550576
 C         -4.7262954291        0.3310291156        0.8562074613
 C         -4.9664903612       -0.7792141891        1.6715916389
 C         -6.1921742254       -0.9689748132        2.2735471084
 C         -7.2039777803       -0.0455498219        2.0833146719
 C         -6.9561409514        1.0745986770        1.3130408285
 C         -5.7294146630        1.2932794637        0.7001235946
 H         -6.7354174396        3.7562013187        1.2729194770
 H         -5.5987016177        4.7089442392        0.3266054246
 H         -5.0189256571        3.7305831248        1.6756019283
 H         -7.5412535590        2.5725760828       -0.8830073299
 H         -6.3574254861        1.7651700387       -1.9118659520
 H         -6.4033807259        3.5263526012       -1.8306875618
 H         -4.4426644110        4.5739504027       -1.5275461215
 H         -2.2419444915        4.7499611323       -2.5673478137
 H         -0.6431879522        2.8649658742       -2.3756183932
 H         -1.2563307805        0.8779560129       -1.0889503290
 H         -1.2368117669        0.7489693461        1.6030560030
 H          0.4920469181       -1.0066136390        1.9234624229
 H          0.7484947261       -5.9406412179        1.8832522497
 H          0.7759617829       -8.0448431396        0.5865408630
 H          0.5630382114       -7.9695835834       -1.8761784283
 H          0.3667529804       -5.7826528736       -3.0206139749
 H          2.7596863709       -3.4316518955       -0.6160780009
 H          3.9417912454       -1.5325860436        0.3089188036
 H          3.5638232237       -0.5791647354        2.3080366599
 H          5.6174811103       -0.6615353330        3.6618411696
 H          7.4999976438        0.8493008472        3.1316813823
 H          7.3189901789        2.4427660774        1.2960285699
 H          5.0928307865        2.6690048252       -2.6238898850
 H          4.5692523478        1.1791667956       -1.8410029967
 H          6.2820685476        1.5926323698       -1.8791390079
 H          7.1837353868        3.5009653557       -0.5844147114
 H          6.1356637643        4.4901692243        0.4454520812
 H          6.0052382626        4.5664064957       -1.3193454077
 H          4.0842746838        5.3674467885       -0.7240652447
 H          1.7546431856        6.0360469215       -0.4641888334
 H          0.0388230291        4.3678213516        0.1620554546
 H          0.6904519434        2.0171673014        0.4976396267
 H          1.1572434241        1.1230731348       -1.5581278665
 H         -0.0309777090       -0.8108980353       -2.4900589433
 H         -1.8730724799       -3.7415937391       -0.3516680822
 H         -3.5636657041       -1.9938911966       -0.6954989248
 H         -4.1805494361       -1.4982361619        1.8426695255
 H         -6.3520470113       -1.8380919736        2.8940070883
 H         -8.1711462476       -0.1869613088        2.5408447413
 H         -7.7462247013        1.7999219108        1.1906000683
