  92
       -135.02167797
 C         -0.7012556604       -1.6928013299       -1.8024523529
 C         -1.4422166770       -0.8108303361       -0.8428358236
 C         -2.8275671741       -0.7808771977       -0.8309909914
 C         -3.5283510560        0.0419338887        0.0442193061
 C         -5.0060481185        0.0608055748        0.0277649320
 C         -5.7237340398       -1.0547159289        0.4811993572
 C         -5.0692122567       -2.2054205221        0.9944257983
 C         -5.7745762006       -3.2917685926        1.4109781098
 C         -7.1818583829       -3.2969357462        1.3361356758
 C         -7.8486687190       -2.2057256906        0.8713992601
 C         -7.1528947031       -1.0428506817        0.4474666894
 C         -7.8298957037        0.0954151826       -0.0119925928
 C         -9.3083378714        0.1129219548       -0.0339103771
 C        -10.0308218320        0.1658475258        1.1539895315
 C        -11.4136638339        0.1840135648        1.1322234013
 C        -12.0910562358        0.1450651655       -0.0750532144
 C        -11.3793766061        0.0901137598       -1.2617621221
 C         -9.9964322496        0.0763560003       -1.2426458193
 C         -7.1125476322        1.2168459772       -0.4511936012
 C         -7.7676505379        2.3960398452       -0.8944912268
 C         -7.0616411743        3.4704180603       -1.3401256078
 C         -5.6533622641        3.4309355557       -1.3750786528
 C         -4.9865907950        2.3279775273       -0.9390733209
 C         -5.6831301775        1.1937846284       -0.4447128367
 C         -2.8185113931        0.8457272758        0.9287352452
 C         -1.4368491727        0.8191689741        0.9308002710
 C         -0.7407133943        0.0005892355        0.0517845585
 C          0.7402244627        0.0043680128        0.0583913566
 C          1.4269517027        0.8230523739       -0.8280567994
 C          2.8083198535        0.8489745568       -0.8414707452
 C          3.5275615208        0.0438637850        0.0342681069
 C          5.0054638006        0.0560262888        0.0205632371
 C          5.6977410162        1.1852684208        0.4794080324
 C          5.0170865258        2.3178902969        0.9987911793
 C          5.6976473300        3.4179990505        1.4204431070
 C          7.1043873694        3.4559251177        1.3447768627
 C          7.7958817234        2.3829853073        0.8735969875
 C          7.1267063693        1.2066856684        0.4439091535
 C          7.8291367605        0.0873379175       -0.0237991013
 C          9.3075205576        0.1053609879       -0.0503202678
 C          9.9903711824        0.1684445037       -1.2609347291
 C         11.3731615928        0.1887455868       -1.2845729776
 C         12.0900107720        0.1416967650       -0.1006028431
 C         11.4178875134        0.0763416515        1.1084517363
 C         10.0350774444        0.0605167782        1.1347756958
 C          7.1373400062       -1.0481041545       -0.4678255856
 C          7.8188623838       -2.2087996365       -0.9199786636
 C          7.1372242080       -3.2969509584       -1.3701210104
 C          5.7282682185       -3.2908622544       -1.4007072001
 C          5.0368836671       -2.2064172697       -0.9567225372
 C          5.7077764163       -1.0586171042       -0.4583026138
 C          2.8364096231       -0.7747917657        0.9208230197
 C          1.4510280023       -0.8035415036        0.9485998434
 C          0.7195139547       -1.6839178810        1.9167885882
 H         -0.1699906607       -1.0885048842       -2.5375985089
 H          0.0408392197       -2.2947414147       -1.2795906609
 H         -1.3863087450       -2.3540565005       -2.3274968066
 H         -3.3815395535       -1.4029594567       -1.5207532098
 H         -3.9907536372       -2.2010140401        1.0513433048
 H         -5.2622272795       -4.1598516332        1.7996327134
 H         -7.7256011526       -4.1742666443        1.6549361837
 H         -8.9272277748       -2.2095856916        0.8155478635
 H         -9.4995088576        0.1987475782        2.0946103828
 H        -11.9647466458        0.2284978023        2.0604402236
 H        -13.1709650464        0.1574721867       -0.0910195587
 H        -11.9036652522        0.0586762496       -2.2059654421
 H         -9.4385082498        0.0320893594       -2.1673411185
 H         -8.8469421008        2.4261202488       -0.8690120385
 H         -7.5745633071        4.3606361945       -1.6739256631
 H         -5.1091275651        4.2861453069       -1.7485291795
 H         -3.9073975648        2.2980392794       -0.9649300240
 H         -3.3537793899        1.4850223559        1.6158251158
 H         -0.8843124427        1.4451571541        1.6174881590
 H          0.8668766703        1.4473440303       -1.5101355919
 H          3.3364014568        1.4870853082       -1.5351816660
 H          3.9390207070        2.2887552490        1.0554859596
 H          5.1656577404        4.2721522132        1.8134263161
 H          7.6279572805        4.3439575892        1.6676864394
 H          8.8740056638        2.4121253458        0.8168127634
 H          9.4283557885        0.2075702223       -2.1833130288
 H         11.8933433605        0.2412955491       -2.2300777872
 H         13.1698420431        0.1559801758       -0.1201314914
 H         11.9730287346        0.0380637005        2.0345600821
 H          9.5079546914        0.0072992111        2.0768382794
 H          8.8986514664       -2.2132363421       -0.8980377914
 H          7.6701607002       -4.1724464249       -1.7114155705
 H          5.2035360992       -4.1566224208       -1.7778508460
 H          3.9571813495       -2.2013642262       -0.9796772849
 H          3.3977693565       -1.3956851642        1.6056576184
 H          1.4125285996       -2.3251820084        2.4559463881
 H          0.1718752768       -1.0786200004        2.6388351939
 H         -0.0077937524       -2.3070343591        1.3976225111
