  57
  -91.6553639245000       0.385610702642667      !
 C         -6.9635884923        1.6463003787       -1.6352579291
 C         -6.0519926406        2.6465061289       -1.3379667584
 C         -4.7643262824        2.3233369632       -0.9574497246
 C         -4.3724232389        0.9879008795       -0.8570061240
 C         -2.9978659300        0.6746237998       -0.4726064435
 N         -2.0304048428        1.4488856490       -0.9565999140
 C         -0.7427696964        1.1875723163       -0.7564466277
 C          0.2776366770        2.0043579382       -1.2410462695
 C          1.6104482698        1.6733095292       -1.0463189071
 C          1.9452925437        0.5145241681       -0.3642964682
 N          3.3128357392        0.1844820644       -0.1641532312
 C          4.0751804426        0.8927042803        0.7515274485
 C          3.5334351809        1.9061675473        1.5367138022
 C          4.3224324381        2.5915536448        2.4439053358
 C          5.6615590171        2.2758774968        2.5874820069
 C          6.2143723670        1.2596602213        1.8239549488
 C          5.4323677036        0.5691579368        0.9153013126
 O          6.0336632321       -0.4331884029        0.2017935256
 C          5.2616226303       -1.1312379392       -0.6883332416
 C          5.8753367539       -2.1445152977       -1.4028281759
 C          5.1518950273       -2.8799883120       -2.3286775854
 C          3.8153250659       -2.5929972640       -2.5404280767
 C          3.1937360183       -1.5806337901       -1.8300812187
 C          3.9018653576       -0.8398681851       -0.8883352156
 C          0.9534870422       -0.3261187259        0.1441842370
 C         -0.3893251268       -0.0110267417       -0.0245432058
 N         -1.3723280102       -0.7433532671        0.4974653943
 C         -2.6530676227       -0.4209636944        0.3464055802
 C         -3.6382295487       -1.2106603505        1.0835602435
 C         -3.4530413472       -2.5874014509        1.2122160900
 C         -4.3539259443       -3.3486781422        1.9309537133
 C         -5.4439236997       -2.7489693462        2.5406493852
 C         -5.6202656503       -1.3777108432        2.4384365033
 C         -4.7254081817       -0.6104774233        1.7194609384
 C         -5.2884745338       -0.0129088489       -1.1826951637
 C         -6.5734051618        0.3179295943       -1.5645309076
 H         -7.9711994683        1.9001481083       -1.9292834073
 H         -6.3469090796        3.6836175979       -1.4047141670
 H         -4.0468884627        3.0963704972       -0.7274157453
 H          0.0044685492        2.8923401870       -1.7876228533
 H          2.3908262342        2.3139346030       -1.4283764277
 H          2.4879992717        2.1495619013        1.4327852840
 H          3.8816200723        3.3743033005        3.0414057462
 H          6.2774624200        2.8100423678        3.2934005885
 H          7.2522835283        0.9841479908        1.9201458111
 H          6.9203348362       -2.3387735153       -1.2218415196
 H          5.6372552089       -3.6681723184       -2.8820952588
 H          3.2471099163       -3.1559120609       -3.2645629456
 H          2.1535939856       -1.3546055086       -2.0028585355
 H          1.2185196730       -1.2123225598        0.6983604868
 H         -2.5989797267       -3.0460156097        0.7370723518
 H         -4.2047398794       -4.4151566390        2.0184080230
 H         -6.1488177459       -3.3453512778        3.1007855883
 H         -6.4581265546       -0.9029307770        2.9277545094
 H         -4.8590020590        0.4594974771        1.6593576059
 H         -4.9862214740       -1.0491188637       -1.1483701323
 H         -7.2742982208       -0.4649097428       -1.8150340459
  57
  -91.6550193354000       0.267785399102026      !
 C         -6.9449744663        2.1424518340       -0.9928374276
 C         -6.0365129756        2.1817283933       -2.0381785197
 C         -4.7566270232        1.6927191525       -1.8654955996
 C         -4.3690833942        1.1448786595       -0.6419211765
 C         -2.9985748802        0.6632828299       -0.4808833814
 N         -2.0298987472        1.3729750469       -1.0537375809
 C         -0.7427128337        1.0880013695       -0.8846746269
 C          0.2779838449        1.8276928647       -1.4796966712
 C          1.6102293678        1.5274309953       -1.2367140521
 C          1.9434148375        0.4851536638       -0.3863188655
 N          3.3108826220        0.1951306418       -0.1286726323
 C          4.0735944110        1.0574559091        0.6436981278
 C          3.5312510900        2.1930378968        1.2387760493
 C          4.3218672110        3.0334983168        2.0029066541
 C          5.6635197142        2.7544646283        2.1921334852
 C          6.2167263268        1.6192375088        1.6208110509
 C          5.4329785497        0.7734465291        0.8562558893
 O          6.0356031032       -0.3386804037        0.3317916525
 C          5.2641056037       -1.1856064172       -0.4187446255
 C          5.8808872605       -2.3070820322       -0.9439489149
 C          5.1597222352       -3.1968844256       -1.7245504176
 C          3.8227305855       -2.9548183797       -1.9834117290
 C          3.1982590606       -1.8348770607       -1.4624058155
 C          3.9031736597       -0.9381779701       -0.6646974923
 C          0.9514864494       -0.2865832547        0.2201226458
 C         -0.3915879643       -0.0187217727       -0.0202626673
 N         -1.3755884838       -0.7524288741        0.4964107207
 C         -2.6573883374       -0.4794452749        0.2722638039
 C         -3.6465622533       -1.4221004880        0.7932237059
 C         -4.7578518409       -1.8075758853        0.0429877806
 C         -5.6585734185       -2.7209009638        0.5540530541
 C         -5.4637490139       -3.2688534450        1.8125371193
 C         -4.3488855686       -2.9100196603        2.5527364180
 C         -3.4426694705       -1.9984216178        2.0473997409
 C         -5.2815751020        1.1320424672        0.4135271247
 C         -6.5590354557        1.6242618578        0.2337383842
 H         -7.9468126830        2.5218824048       -1.1297254368
 H         -6.3279161160        2.5962197600       -2.9924166130
 H         -4.0416419062        1.7215363670       -2.6737607314
 H          0.0058530513        2.6452777037       -2.1275028553
 H          2.3914416191        2.1075780433       -1.7043113090
 H          2.4838354936        2.4099731857        1.1005743360
 H          3.8800956900        3.9089880311        2.4529636778
 H          6.2808703470        3.4098678126        2.7857325177
 H          7.2566943194        1.3695063861        1.7579368940
 H          6.9268410192       -2.4624845649       -0.7328995826
 H          5.6473258270       -4.0689422832       -2.1307001328
 H          3.2558000551       -3.6378194824       -2.5967588383
 H          2.1576522509       -1.6468857754       -1.6729082475
 H          1.2137557237       -1.1030964065        0.8740580133
 H         -4.9067373129       -1.3987666726       -0.9454377206
 H         -6.5162286010       -3.0118475381       -0.0347011381
 H         -6.1735484815       -3.9792442716        2.2098725827
 H         -4.1851085534       -3.3442442721        3.5284451344
 H         -2.5700742444       -1.7151019462        2.6164655970
 H         -4.9825944703        0.7479750868        1.3775704231
 H         -7.2577337152        1.6094381666        1.0574531705
  57
  -91.6549856045000       0.258395677994593      !
 C         -6.9463839764        1.7056012620       -1.6165981031
 C         -6.0514054140        2.6933308538       -1.2386699033
 C         -4.7711050086        2.3576961260       -0.8443471624
 C         -4.3705296763        1.0215015089       -0.8104637740
 C         -3.0011520924        0.6996760470       -0.4138357640
 N         -2.0338328272        1.5072470175       -0.8402819332
 C         -0.7470732607        1.2424837642       -0.6434579471
 C          0.2737592002        2.0840971249       -1.0828051273
 C          1.6064278139        1.7434849543       -0.9074430296
 C          1.9440925327        0.5564032320       -0.2756916578
 N          3.3087933820        0.2080648621       -0.1092075580
 C          4.1346058882        0.9643060400        0.7106074864
 C          3.6560934395        2.0355943079        1.4599215752
 C          4.5088691374        2.7703964173        2.2649244932
 C          5.8514770941        2.4471353632        2.3440071155
 C          6.3409827960        1.3687656199        1.6243550125
 C          5.4942171195        0.6280757170        0.8189311962
 O          6.0373415209       -0.4383210976        0.1539771129
 C          5.2067748562       -1.1799795153       -0.6428159228
 C          5.7669105321       -2.2529285012       -1.3132911331
 C          4.9878613943       -3.0335843784       -2.1524702543
 C          3.6504746003       -2.7271508701       -2.3264818014
 C          3.0828485967       -1.6552357637       -1.6597248719
 C          3.8445022875       -0.8730609696       -0.7958438133
 C          0.9497796410       -0.3031674632        0.1988180940
 C         -0.3927684128        0.0109731670        0.0315822613
 N         -1.3767135619       -0.7547998845        0.5022289602
 C         -2.6581658207       -0.4365526606        0.3483405471
 C         -3.6483775664       -1.2854653119        1.0087652725
 C         -4.7590621654       -0.7433824583        1.6561071470
 C         -5.6615976216       -1.5691612770        2.2964244041
 C         -5.4701538519       -2.9421838111        2.3071221169
 C         -4.3569732478       -3.4854946690        1.6863349108
 C         -3.4479297265       -2.6656173802        1.0468629588
 C         -5.2694644839        0.0345852964       -1.2157193056
 C         -6.5470430248        0.3780994908       -1.6112651229
 H         -7.9480394092        1.9688443199       -1.9227453812
 H         -6.3536073572        3.7304877340       -1.2519980366
 H         -4.0669655113        3.1209404047       -0.5495529832
 H          0.0009698165        2.9953638026       -1.5899023013
 H          2.3851005360        2.3971636176       -1.2706184723
 H          2.6085279685        2.2865288054        1.4106220708
 H          4.1151004441        3.5988763952        2.8328951064
 H          6.5177793069        3.0212638375        2.9680325054
 H          7.3787861242        1.0811137540        1.6763897994
 H          6.8155535612       -2.4564799136       -1.1669657937
 H          5.4308260164       -3.8693435185       -2.6704827372
 H          3.0384311259       -3.3208694521       -2.9875006331
 H          2.0423732832       -1.4161362527       -1.8095962711
 H          1.2137995340       -1.2075987206        0.7233326445
 H         -4.9056889179        0.3265502135        1.6655833352
 H         -6.5188951161       -1.1396108482        2.7937117006
 H         -6.1810277902       -3.5843512908        2.8059396343
 H         -4.1964391522       -4.5538008550        1.7028014161
 H         -2.5768358970       -3.0803234568        0.5622545199
 H         -4.9598384376       -0.9999294511       -1.2325063941
 H         -7.2350899268       -0.3940300055       -1.9235403749
  57
  -91.6539699202000       8.820822026071401E-002 !
 C         -6.9883890796        1.9908158752       -1.1083376393
 C         -6.0089526262        2.1503982445       -2.0754268342
 C         -4.7135687077        1.7418837008       -1.8267059357
 C         -4.3805689380        1.1545123560       -0.6051735024
 C         -3.0010792356        0.7348105599       -0.3719642132
 N         -2.0283679212        1.5095938503       -0.8455213377
 C         -0.7426725679        1.2356989951       -0.6499885384
 C          0.2845998483        2.0129493965       -1.1826552909
 C          1.6143300508        1.6863553520       -0.9640787460
 C          1.9434828627        0.5950225148       -0.1740323378
 N          3.3044234809        0.2400072492        0.0107469117
 C          4.1913543531        1.1191642160        0.6170148287
 C          3.7745752179        2.3188923712        1.1879500717
 C          4.6894084515        3.1814345728        1.7662442776
 C          6.0349994250        2.8619438930        1.7945694416
 C          6.4642254909        1.6566921565        1.2624362918
 C          5.5545909932        0.7868666586        0.6875124640
 O          6.0420691109       -0.3991509099        0.2091523071
 C          5.1547555380       -1.2579650225       -0.3818792271
 C          5.6637252531       -2.4474173174       -0.8730982034
 C          4.8300842096       -3.3521642355       -1.5103752383
 C          3.4899111273       -3.0503502080       -1.6693348177
 C          2.9738242650       -1.8628699322       -1.1805747237
 C          3.7888774305       -0.9551333816       -0.5090555200
 C          0.9421709131       -0.1874037797        0.4060891722
 C         -0.3980649617        0.0866678202        0.1601547984
 N         -1.3848969162       -0.6902352585        0.6055869737
 C         -2.6605160784       -0.4400130049        0.3301389712
 C         -3.6452964396       -1.4549885468        0.7075047393
 C         -4.6527920635       -1.8460442925       -0.1746584695
 C         -5.5489038961       -2.8324630948        0.1861475640
 C         -5.4517070483       -3.4473135237        1.4247674579
 C         -4.4393229425       -3.0804553052        2.2962762267
 C         -3.5370785245       -2.0962307364        1.9408377521
 C         -5.3658924015        1.0239649006        0.3743344916
 C         -6.6585843874        1.4365849362        0.1189191168
 H         -8.0026203898        2.3048828621       -1.3060855062
 H         -6.2574630428        2.5944771078       -3.0285083594
 H         -3.9439776888        1.8617375667       -2.5742739692
 H          0.0190725316        2.8662883876       -1.7855211894
 H          2.3971497189        2.2774020148       -1.4152683820
 H          2.7261381923        2.5708913886        1.1775936015
 H          4.3422689053        4.1082721450        2.1959324452
 H          6.7502544628        3.5373784078        2.2363356017
 H          7.5027276545        1.3679286998        1.2859400324
 H          6.7169719735       -2.6417669156       -0.7496217348
 H          5.2323453066       -4.2791514297       -1.8868882961
 H          2.8338484333       -3.7384876909       -2.1793723286
 H          1.9301245632       -1.6345273756       -1.3222497901
 H          1.1958642776       -1.0296195188        1.0302009648
 H         -4.7221301934       -1.3844903456       -1.1485810989
 H         -6.3243829568       -3.1282742569       -0.5052537631
 H         -6.1573727224       -4.2153332119        1.7046690445
 H         -4.3523976160       -3.5654990797        3.2577745893
 H         -2.7432355708       -1.8077321431        2.6133228445
 H         -5.1130616840        0.6086395120        1.3386338455
 H         -7.4141651487        1.3303948269        0.8837396203
