  78
       -130.05416431
 C         -3.8766378065        3.9814834235        1.9715013587
 C         -4.4754678254        2.9107533413        1.3333754217
 C         -3.7448088778        2.1591364630        0.4158189350
 C         -4.3335172171        0.9846774373       -0.2084071537
 N         -3.6846978842       -0.1255611925       -0.4531354255
 C         -4.5995302929       -0.9941775483       -0.9930539552
 C         -4.4525806649       -2.3098023188       -1.4208569136
 C         -5.5706266242       -2.9422753618       -1.9205092023
 C         -6.8078620870       -2.2983575272       -2.0009522962
 C         -6.9748992380       -0.9944696688       -1.5802200579
 C         -5.8569465846       -0.3530945824       -1.0730431761
 N         -5.6530827612        0.9011645970       -0.5565688914
 C         -2.4242268828        2.4975751684        0.1299184484
 C         -1.8095310571        3.5525843902        0.7935980484
 C         -0.4037909547        3.9510872565        0.6031227158
 N         -0.1514074990        5.2072031086        0.9995999227
 N          1.0194315061        5.7214725344        0.9291350454
 N          2.0512141925        5.0206199472        0.6172823123
 C          1.9233417928        3.7567987023        0.2175050009
 C          3.1715480688        3.0553977269       -0.1020338673
 C          4.2234471627        3.7833886894       -0.6570378436
 C          5.4027652118        3.1460185440       -1.0000456747
 C          5.5380163338        1.7830263337       -0.8217964108
 C          4.4973870529        1.0417882956       -0.2577269096
 C          4.6446065835       -0.3958259535       -0.1245565921
 N          5.7913956410       -1.0230400489       -0.2016313827
 C          5.5040758768       -2.3533609107       -0.0777794516
 C          6.3379025922       -3.4689213509       -0.0880248638
 C          5.7468692991       -4.7066055152        0.0417889093
 C          4.3621754666       -4.8551854193        0.1776095498
 C          3.5144382093       -3.7673052066        0.1944005873
 C          4.1059067096       -2.5203314639        0.0702718914
 N          3.5874651850       -1.2553982564        0.0474373196
 C          3.3315705940        1.6926113246        0.1312458780
 C          0.6411073257        3.1744329472        0.0770233195
 C          0.5481831895        1.8739225058       -0.6029481457
 C          1.0769506420        1.7640763955       -1.8884991661
 C          1.1725500082        0.5290962258       -2.5025871879
 C          0.7441844352       -0.6093441167       -1.8452601782
 C          0.1687303796       -0.5040942927       -0.5812511733
 C         -0.3398418518       -1.6930182550        0.0961656048
 N          0.3398151621       -2.7861314937        0.3234642485
 C         -0.5319542921       -3.6296784457        0.9635762741
 C         -0.3523325070       -4.9239557231        1.4395527490
 C         -1.4352820518       -5.5428983092        2.0260648571
 C         -2.6730394356       -4.9055503752        2.1455686475
 C         -2.8715932215       -3.6189451661        1.6884878973
 C         -1.7873735849       -2.9863944328        1.1016745714
 N         -1.6216865682       -1.7403531547        0.5602774655
 C          0.0725740648        0.7358865861        0.0391687247
 C         -2.5565003175        4.2937021005        1.7151869800
 H         -4.4388914721        4.5667541079        2.6832196063
 H         -5.4954586670        2.6416377604        1.5675729242
 H         -3.4999779002       -2.8110492334       -1.3608467784
 H         -5.4927073737       -3.9640778497       -2.2597220049
 H         -7.6537880564       -2.8365881523       -2.4008884778
 H         -7.9313475750       -0.4976257366       -1.6406831307
 H         -6.3318016048        1.6408404700       -0.4912090894
 H         -1.9093295846        1.9292406471       -0.6263253585
 H          4.0967184521        4.8431966782       -0.8143138484
 H          6.2151024514        3.7173671152       -1.4234983881
 H          6.4381768438        1.2623470755       -1.1065659204
 H          7.4047291528       -3.3556571271       -0.1961547686
 H          6.3655378996       -5.5924793488        0.0368590832
 H          3.9518325827       -5.8503556572        0.2698506545
 H          2.4436038096       -3.8570891220        0.2916014632
 H          2.6054760088       -1.0366471305        0.0816653588
 H          2.5596472558        1.1408909395        0.6446058125
 H          1.4274899764        2.6509111319       -2.3961135833
 H          1.5971507847        0.4549094108       -3.4919205862
 H          0.8389320639       -1.5830514292       -2.2998601194
 H          0.6012895776       -5.4191452893        1.3468644682
 H         -1.3304914775       -6.5494189426        2.4036140435
 H         -3.4926044284       -5.4357448123        2.6079639025
 H         -3.8274675624       -3.1240643572        1.7766562260
 H         -2.3482154119       -1.0527868508        0.3415251599
 H         -0.3354378239        0.8072188001        1.0379017882
 H         -2.0787866764        5.1185087099        2.2194179942
