  78
  -130.054164310000       0.966509007906925      !
 C         -3.8766378065        3.9814834235        1.9715013587
 C         -4.4754678254        2.9107533413        1.3333754217
 C         -3.7448088778        2.1591364630        0.4158189350
 C         -4.3335172171        0.9846774373       -0.2084071537
 N         -3.6846978842       -0.1255611925       -0.4531354255
 C         -4.5995302929       -0.9941775483       -0.9930539552
 C         -4.4525806649       -2.3098023188       -1.4208569136
 C         -5.5706266242       -2.9422753618       -1.9205092023
 C         -6.8078620870       -2.2983575272       -2.0009522962
 C         -6.9748992380       -0.9944696688       -1.5802200579
 C         -5.8569465846       -0.3530945824       -1.0730431761
 N         -5.6530827612        0.9011645970       -0.5565688914
 C         -2.4242268828        2.4975751684        0.1299184484
 C         -1.8095310571        3.5525843902        0.7935980484
 C         -0.4037909547        3.9510872565        0.6031227158
 N         -0.1514074990        5.2072031086        0.9995999227
 N          1.0194315061        5.7214725344        0.9291350454
 N          2.0512141925        5.0206199472        0.6172823123
 C          1.9233417928        3.7567987023        0.2175050009
 C          3.1715480688        3.0553977269       -0.1020338673
 C          4.2234471627        3.7833886894       -0.6570378436
 C          5.4027652118        3.1460185440       -1.0000456747
 C          5.5380163338        1.7830263337       -0.8217964108
 C          4.4973870529        1.0417882956       -0.2577269096
 C          4.6446065835       -0.3958259535       -0.1245565921
 N          5.7913956410       -1.0230400489       -0.2016313827
 C          5.5040758768       -2.3533609107       -0.0777794516
 C          6.3379025922       -3.4689213509       -0.0880248638
 C          5.7468692991       -4.7066055152        0.0417889093
 C          4.3621754666       -4.8551854193        0.1776095498
 C          3.5144382093       -3.7673052066        0.1944005873
 C          4.1059067096       -2.5203314639        0.0702718914
 N          3.5874651850       -1.2553982564        0.0474373196
 C          3.3315705940        1.6926113246        0.1312458780
 C          0.6411073257        3.1744329472        0.0770233195
 C          0.5481831895        1.8739225058       -0.6029481457
 C          1.0769506420        1.7640763955       -1.8884991661
 C          1.1725500082        0.5290962258       -2.5025871879
 C          0.7441844352       -0.6093441167       -1.8452601782
 C          0.1687303796       -0.5040942927       -0.5812511733
 C         -0.3398418518       -1.6930182550        0.0961656048
 N          0.3398151621       -2.7861314937        0.3234642485
 C         -0.5319542921       -3.6296784457        0.9635762741
 C         -0.3523325070       -4.9239557231        1.4395527490
 C         -1.4352820518       -5.5428983092        2.0260648571
 C         -2.6730394356       -4.9055503752        2.1455686475
 C         -2.8715932215       -3.6189451661        1.6884878973
 C         -1.7873735849       -2.9863944328        1.1016745714
 N         -1.6216865682       -1.7403531547        0.5602774655
 C          0.0725740648        0.7358865861        0.0391687247
 C         -2.5565003175        4.2937021005        1.7151869800
 H         -4.4388914721        4.5667541079        2.6832196063
 H         -5.4954586670        2.6416377604        1.5675729242
 H         -3.4999779002       -2.8110492334       -1.3608467784
 H         -5.4927073737       -3.9640778497       -2.2597220049
 H         -7.6537880564       -2.8365881523       -2.4008884778
 H         -7.9313475750       -0.4976257366       -1.6406831307
 H         -6.3318016048        1.6408404700       -0.4912090894
 H         -1.9093295846        1.9292406471       -0.6263253585
 H          4.0967184521        4.8431966782       -0.8143138484
 H          6.2151024514        3.7173671152       -1.4234983881
 H          6.4381768438        1.2623470755       -1.1065659204
 H          7.4047291528       -3.3556571271       -0.1961547686
 H          6.3655378996       -5.5924793488        0.0368590832
 H          3.9518325827       -5.8503556572        0.2698506545
 H          2.4436038096       -3.8570891220        0.2916014632
 H          2.6054760088       -1.0366471305        0.0816653588
 H          2.5596472558        1.1408909395        0.6446058125
 H          1.4274899764        2.6509111319       -2.3961135833
 H          1.5971507847        0.4549094108       -3.4919205862
 H          0.8389320639       -1.5830514292       -2.2998601194
 H          0.6012895776       -5.4191452893        1.3468644682
 H         -1.3304914775       -6.5494189426        2.4036140435
 H         -3.4926044284       -5.4357448123        2.6079639025
 H         -3.8274675624       -3.1240643572        1.7766562260
 H         -2.3482154119       -1.0527868508        0.3415251599
 H         -0.3354378239        0.8072188001        1.0379017882
 H         -2.0787866764        5.1185087099        2.2194179942
  78
  -130.050986810000       3.349099209307520E-002 !
 C         -4.2003779459        0.3859843005        1.1924295932
 C         -5.2509563665        0.7691409666        0.3822486446
 C         -5.0740827706        1.7696760319       -0.5766132826
 C         -6.2044599129        2.1553576189       -1.3992078799
 N         -7.3284379781        1.4880782511       -1.4526592657
 C         -8.1269489961        2.1586820705       -2.3341599797
 C         -9.4209609450        1.8859723366       -2.7687166469
 C         -9.9850445959        2.7534001858       -3.6784179272
 C         -9.2950081524        3.8711672974       -4.1562275014
 C         -8.0113628581        4.1618324038       -3.7413799399
 C         -7.4361749237        3.2935529246       -2.8278129457
 N         -6.2123348747        3.2595112487       -2.2166638547
 C         -3.8208513714        2.3556874873       -0.7206171587
 C         -2.7552006374        1.9441056019        0.0727944658
 C         -1.4492887708        2.5792222949       -0.1284282464
 N         -1.4708847149        3.8792147113       -0.4345160689
 N         -0.3824962247        4.5492290476       -0.5651413017
 N          0.7739163925        4.0256147552       -0.3601160901
 C          0.9089550943        2.7197748681       -0.1218575808
 C          2.2838237747        2.2478636131        0.1016980725
 C          3.1177099738        3.0341664099        0.8937546261
 C          4.3715948086        2.5700599583        1.2546974892
 C          4.7770775878        1.3052415613        0.8791109191
 C          3.9604523075        0.5138634619        0.0648931440
 C          4.3586761749       -0.8584596085       -0.1803406315
 N          5.4364074614       -1.3934111732        0.3357897062
 C          5.3899579497       -2.7217892748        0.0248206193
 C          6.2610290258       -3.7561364857        0.3529273482
 C          5.9279482411       -5.0245566440       -0.0666887463
 C          4.7637102228       -5.2774042818       -0.7974790831
 C          3.8887094974       -4.2677126012       -1.1397627353
 C          4.2158658994       -2.9896883189       -0.7201296124
 N          3.5877565646       -1.7800175739       -0.8474089893
 C          2.7381635448        1.0204762149       -0.3706246179
 C         -0.2269427676        1.8920496632       -0.0299237677
 C         -0.1566470468        0.4282956351        0.0695145791
 C         -0.8484450007       -0.3358715986       -0.8682441491
 C         -0.7185734040       -1.7146039470       -0.8730945172
 C          0.1436190714       -2.3333162239        0.0084648912
 C          0.8578094328       -1.5794755876        0.9456516456
 C          1.8729525328       -2.2567709459        1.7276892843
 N          2.0469326399       -3.5538212029        1.7077104251
 C          3.1777951705       -3.7975759196        2.4318006005
 C          3.8326889670       -4.9945289229        2.7049779355
 C          4.9969554491       -4.9290766625        3.4371036163
 C          5.5116583738       -3.7130971549        3.8957387290
 C          4.8773270120       -2.5148515895        3.6423940815
 C          3.7059063835       -2.5723203749        2.9066761107
 N          2.8410668410       -1.6106249397        2.4580899447
 C          0.6588334942       -0.2025674523        1.0055816114
 C         -2.9529920152        0.9672684775        1.0459778605
 H         -4.3491172624       -0.3725329619        1.9460255310
 H         -6.2257556964        0.3178931673        0.4729654709
 H         -9.9511889914        1.0233803269       -2.3987856385
 H        -10.9874989941        2.5706714724       -4.0362954768
 H         -9.7805207187        4.5216886794       -4.8684202292
 H         -7.4791344833        5.0254308130       -4.1117418563
 H         -5.4796799400        3.9416439494       -2.3133163566
 H         -3.6345108234        3.1228240452       -1.4569412127
 H          2.7632612167        3.9972703119        1.2266896084
 H          5.0179733850        3.1878610612        1.8594224094
 H          5.7194448789        0.8924004518        1.2018156691
 H          7.1534872165       -3.5589549469        0.9237213841
 H          6.5777965918       -5.8517762273        0.1767087219
 H          4.5439688267       -6.2910531138       -1.0977499698
 H          2.9849769546       -4.4636950674       -1.6964730620
 H          2.7003759318       -1.6238309834       -1.2938337346
 H          2.1319191557        0.4617250992       -1.0671459871
 H         -1.4731839284        0.1537537198       -1.6007478634
 H         -1.2720823730       -2.2995380353       -1.5918891189
 H          0.3049320532       -3.3990817608       -0.0091325809
 H          3.4367082788       -5.9290003577        2.3424031972
 H          5.5348476586       -5.8381834878        3.6616099356
 H          6.4323472498       -3.7143870036        4.4598439139
 H          5.2797675666       -1.5750083495        3.9878107166
 H          2.9609010619       -0.6178263938        2.5650102655
 H          1.1482232420        0.3921756018        1.7635175642
 H         -2.1416528888        0.6757909762        1.6959046798
