96
 energy: -158.835494974918 gnorm: 0.000074201279 xtb: 6.7.1 (edcfbbe)
C            7.32839173844506       -4.71517489217211       -0.46251590321858
C            8.00029278804024       -3.50618000026416       -0.36805538343011
C            7.29248372719889       -2.32530868698237       -0.26409040860041
C            5.89766223713036       -2.34411031514145       -0.25418817984357
C            5.14831713925786       -1.10059840284057       -0.13514953272943
N            5.83631350183034        0.05206877530081       -0.00708417666887
C            5.12525819149468        1.19137291382679        0.12155638125405
C            5.85085792823798        2.44887681650623        0.23881219016672
C            7.24590408707814        2.45810116235596        0.23176562497961
C            7.93124747684645        3.65224947039685        0.33416272040559
C            7.23679354385064        4.84708819314493        0.44429874326480
C            5.84954410323829        4.84437836299527        0.45249317310850
C            5.15761958600855        3.65493564510467        0.35059495959012
N            3.82045973850815        1.20082127856296        0.14023867410197
C            3.15608899911982        0.02614662281861       -0.00382279000353
C            1.73956894830934        0.01133352131214       -0.00200339643793
C            1.00512268181006        1.18523095973102        0.26205802517222
C           -0.37015512027389        1.16953820130650        0.27057581492184
N           -1.08461173073440        2.35211647471550        0.54518230711562
C           -2.15226267494729        2.46816380830364        1.41574302684033
C           -2.55059562943054        1.60904271699354        2.42943640570307
C           -3.67245532126106        1.95117619028126        3.15837508382201
C           -4.36983641113035        3.13201996313878        2.90962791703156
C           -3.94275041436073        4.02153338451951        1.94453278241223
C           -2.82052222037566        3.69302659828961        1.19537300308321
C           -2.09483460677398        4.36081159845619        0.15391321120505
N           -2.30261194463632        5.53189083314506       -0.42179770893242
C           -1.46937795068865        5.89404498999566       -1.37635110790746
C           -0.40168685671410        5.11082785800805       -1.81402326140804
C           -0.16035134659609        3.88067960773389       -1.22582361582207
C           -1.02345204097065        3.49799613629650       -0.21084802733555
C           -1.07985229842934       -0.01934604111740       -0.00663103856951
N           -2.48449025497821       -0.02456797975674       -0.03055603484854
C           -3.27533477860169        0.79999172038117       -0.80842046691647
C           -2.89946377271116        1.69000452579897       -1.80461451236267
C           -3.89529818753033        2.41042755717470       -2.43330434168584
C           -5.23832381144385        2.23633231763404       -2.10312928156214
C           -5.62359595042734        1.31327431462564       -1.15258305827401
C           -4.63688979283452        0.58301961353389       -0.50287453972048
C           -4.66310929754861       -0.44759516125353        0.49232207573606
N           -5.68362469033665       -1.02622403235338        1.10076480108734
C           -5.40972855947845       -1.95101702735320        1.99767909258139
C           -4.11468606402857       -2.32131024340336        2.35932411200200
C           -3.02913912789380       -1.72596025982394        1.74194280141327
C           -3.30833411252723       -0.78700281115777        0.76106709942924
C           -0.34550995262420       -1.19526356608391       -0.26573881889429
N           -1.03274612340853       -2.39887295072838       -0.52012479793986
C           -0.91676074130973       -3.54974125465120        0.23921379089197
C           -0.02693228677196       -3.84159833350791        1.26374470209507
C           -0.14092652305183       -5.07150026860322        1.88260557219363
C           -1.11728552104791       -5.99245392680582        1.50450627291638
C           -2.01470907084445       -5.70361730021901        0.49706393866970
C           -1.91749554340403       -4.47312931225744       -0.14052054708581
C           -2.66921578757250       -3.84266200453828       -1.18597573399716
N           -3.70993815665518       -4.27621932898044       -1.87632849026426
C           -4.19780603491731       -3.47632450331595       -2.80221589953541
C           -3.65584579002318       -2.22959620140570       -3.11390465030061
C           -2.55872311715580       -1.75924624905305       -2.41414504565110
C           -2.07709596791394       -2.56691209690460       -1.39562347600763
C            1.02976705109542       -1.17982021297891       -0.25979918079090
N            3.84410369499042       -1.13493133506600       -0.15055474690042
C            5.22703150850337       -3.56417084680229       -0.34993781267519
C            5.94140078269423       -4.74022383769142       -0.45327473538302
H            7.88457211434162       -5.63751943822305       -0.54272326395705
H            9.08032355298999       -3.48762919278117       -0.37510491323133
H            7.80128414889453       -1.37658065226106       -0.18906168937098
H            7.77257450672996        1.52021922271946        0.14488837050685
H            9.01143669642394        3.65519697265611        0.32790373943792
H            7.77539856368782        5.77987932608553        0.52346851936047
H            5.30942201106791        5.77598722593124        0.53841715170755
H            4.07864876386214        3.63673800786193        0.35458470485714
H            1.54002453131107        2.09238430180421        0.49262172829058
H           -1.99597190550863        0.70957437257895        2.64921827900230
H           -4.01323423586356        1.28946051363971        3.94077503536927
H           -5.24740371526152        3.35700066229030        3.49629082894635
H           -4.45573750884425        4.95286313490951        1.76544303296917
H           -1.66047430228832        6.86147000484620       -1.81984498033853
H            0.23591486740404        5.47000153548004       -2.60663113289864
H            0.65933387845339        3.25292426871807       -1.54492879599553
H           -1.86458440665422        1.81116234990489       -2.08899048243722
H           -3.62567269578508        3.12119834154950       -3.20033158372381
H           -5.98486602127321        2.82536733711412       -2.61370563929055
H           -6.66118802355588        1.14923171177477       -0.90951511140266
H           -6.26637714589695       -2.41745292728599        2.46383292341722
H           -3.96238401286365       -3.07075313781512        3.11978497961891
H           -2.01849172420512       -1.98418576514024        2.02276391367307
H            0.72562364389736       -3.13090338816472        1.57091723980279
H            0.54213818489686       -5.32398129378155        2.68017655100786
H           -1.17006139064481       -6.94222991323031        2.01506771214734
H           -2.78083800316452       -6.40256327666143        0.20158765308114
H           -5.05628566710287       -3.85374494519346       -3.33992635203452
H           -4.08775473213609       -1.63963025389381       -3.90665308074086
H           -2.09866790996432       -0.81451398125535       -2.66209933568686
H            1.58388804699884       -2.07695748228518       -0.48351912652059
H            4.14795072461879       -3.56785006679778       -0.33936252372749
H            5.41883065020108       -5.68282237580278       -0.52629087767355
