96
 energy: -158.907602213177 gnorm: 0.000033916579 xtb: 6.7.1 (edcfbbe)
C            7.22074497355019       -4.64676171336920       -0.11102261001908
C            7.89115258326927       -3.43410329232735       -0.15909697709682
C            7.18199726267372       -2.24910153675486       -0.13906697131577
C            5.79009802463658       -2.27085897465066       -0.07154569053446
C            5.03540113887872       -1.01949356996271       -0.05022183690672
N            5.71231267527686        0.12464098498712       -0.03073742169203
C            4.98641861124841        1.23814194512057       -0.00541777134684
C            5.68694301618911        2.52079876062600        0.01174886741494
C            7.07945563169284        2.55842825267582        0.05521981500819
C            7.73755362584883        3.77259632675397        0.07109427253117
C            7.01526035741639        4.95571006621672        0.04312735968198
C            5.62993707135024        4.92376565764843       -0.00067955799900
C            4.96539383174573        3.71321520475571       -0.01609265470013
N            3.65448385874896        1.25500640053990        0.00457667490184
C            3.06242067593534        0.06698015185642       -0.02092084039112
C            1.59911722461200        0.03417728678729       -0.01553103442485
C            0.87730314332795        1.19186179483731        0.25103995797638
C           -0.50863153715911        1.16910632274722        0.25878468538094
N           -1.21827306202016        2.34645963694553        0.52977185615316
C           -2.30496086948195        2.47165327628960        1.38073990219072
C           -2.73865013040722        1.61052113462825        2.37677620256632
C           -3.86733287688246        1.96770138551625        3.08878863993042
C           -4.53383868314827        3.16584824523671        2.84187986032418
C           -4.06699003668658        4.05825999983565        1.89811656349120
C           -2.93807010458411        3.71471248470999        1.16674327232739
C           -2.17744229053202        4.38478911697639        0.14960535088497
N           -2.36105052655577        5.57257323923593       -0.40469705233967
C           -1.49702704670445        5.92816773108823       -1.33651044027114
C           -0.43377332551120        5.13521554263330       -1.76569269943593
C           -0.22921632983207        3.88683680014648       -1.20058802614542
C           -1.11918494888334        3.50840185957566       -0.20885874509673
C           -1.19577726739677       -0.02904945593434       -0.01556022503427
N           -2.59396735840440       -0.05367746781129       -0.03113233646413
C           -3.40611443428099        0.77739494130874       -0.78718030862104
C           -3.05283035643078        1.69375988117034       -1.76577244877082
C           -4.06759090636997        2.40228863947696       -2.37967775733454
C           -5.40454430493105        2.18561344250490       -2.05498271665043
C           -5.76500588339347        1.23004749463904       -1.12639095534423
C           -4.75966724834664        0.51413089147069       -0.49122675946590
C           -4.76295547108337       -0.54441155247050        0.47869193695840
N           -5.78061609405389       -1.15179981390408        1.06697326785240
C           -5.47950707548937       -2.09436248998941        1.93972677843838
C           -4.17914929718991       -2.44695660379780        2.29605852474030
C           -3.10290069785989       -1.81099596168487        1.70086517667435
C           -3.40499720636102       -0.86127286123397        0.73912749265789
C           -0.45642600216272       -1.19742279492898       -0.27454683187175
N           -1.11134929756422       -2.40985028743504       -0.52820019407721
C           -0.92785284629197       -3.57324160013677        0.20603275055515
C           -0.00448828003131       -3.84807412663980        1.20401492077736
C           -0.05719802527277       -5.09258867115362        1.80360026134030
C           -1.00756296651659       -6.04189157032734        1.43313320334307
C           -1.94088019776833       -5.76745693174256        0.45403624099532
C           -1.90352793079899       -4.52470248288849       -0.16418533284998
C           -2.71035848274420       -3.90530482852152       -1.17770884219797
N           -3.75023558708316       -4.38250628438018       -1.84347407088832
C           -4.29022029588765       -3.58221811764825       -2.74251961539847
C           -3.80430404918070       -2.31352270406746       -3.05599044857363
C           -2.70999904586272       -1.80505400958780       -2.37746380518623
C           -2.17879232127390       -2.60537980482980       -1.37907428180127
C            0.92968828634884       -1.15620532914518       -0.27263249538389
N            3.70555305781676       -1.09394393588484       -0.05062445938765
C            5.12069104099466       -3.49273238586039       -0.02330087311447
C            5.83630088102762       -4.67377249394826       -0.04271785002242
H            7.77798734134641       -5.57194909520754       -0.12678462880263
H            8.96974010155889       -3.41614379907034       -0.21249466428640
H            7.68597907865620       -1.29625801366088       -0.17689206307673
H            7.62422829717776        1.62782449669651        0.07773016645367
H            8.81669069223289        3.80054368751788        0.10559529475898
H            7.53256788146042        5.90384241642191        0.05563212439783
H            5.06931486081530        5.84675361643095       -0.02239652187249
H            3.88810834429598        3.67013685881631       -0.05108023030921
H            1.40689549480266        2.10191793029877        0.48253958424518
H           -2.20906082168726        0.69658561137237        2.59967544804092
H           -4.23655646966675        1.30320398665663        3.85568723735591
H           -5.41726133091981        3.40290398661583        3.41484128981281
H           -4.55258131161296        5.00465950429053        1.72232406979434
H           -1.66312233619735        6.90348928285355       -1.77371963695022
H            0.22526832476465        5.49435687215128       -2.54094821151138
H            0.57811554996896        3.24578009028269       -1.52617372447257
H           -2.02262297865236        1.84774222640446       -2.05158744892245
H           -3.81517145619321        3.13606951988898       -3.13058862418572
H           -6.16647068467410        2.76484205982881       -2.55389781535903
H           -6.79733969961158        1.02834690048441       -0.89012095279981
H           -6.32553323349364       -2.58930071578041        2.39658889293282
H           -4.01138672593298       -3.20932109225569        3.04051373935977
H           -2.08816137742154       -2.04741633819199        1.98734093071076
H            0.72736627170021       -3.11623271965809        1.51237183718896
H            0.65417933000243       -5.33146957077254        2.58042831415911
H           -1.01286551960056       -7.00167789388370        1.92742418987189
H           -2.69078359257290       -6.48639764619316        0.16563604936984
H           -5.15025948834368       -3.98260382387422       -3.26151158360441
H           -4.27632285426103       -1.73246427103396       -3.83252485044900
H           -2.29462505299169       -0.84010776549084       -2.62772162432547
H            1.49930302416391       -2.04236561029262       -0.50146567138274
H            4.04334417152666       -3.49579982256749        0.03125121860479
H            5.31607389517218       -5.61958111501114       -0.00489903171705
