  96
       -158.83079389
 C          7.3602823315       -4.6575662085       -0.5325365925
 C          8.0256201141       -3.4450345704       -0.4379499973
 C          7.3118364466       -2.2700870653       -0.3088413622
 C          5.9180708836       -2.2986712404       -0.2743508656
 C          5.1620880352       -1.0587185986       -0.1343388778
 N          5.8482388939        0.0902896847        0.0064050562
 C          5.1234777127        1.2166534790        0.1451643844
 C          5.8377831751        2.4805202759        0.2849647892
 C          7.2322976044        2.5000012253        0.2984301855
 C          7.9070411109        3.6977162022        0.4269109386
 C          7.2019879251        4.8857921512        0.5425618259
 C          5.8149882707        4.8726495941        0.5298600832
 C          5.1337550418        3.6793893270        0.4021332246
 N          3.8165966221        1.2222819691        0.1587775735
 C          3.1598168359        0.0459944302        0.0054997452
 C          1.7451548787        0.0215302006        0.0042220622
 C          0.9999768940        1.1967708072        0.2397666123
 C         -0.3739569075        1.1712818105        0.2416174058
 N         -1.0993595475        2.3554941594        0.4803229098
 C         -2.1825840153        2.4824633313        1.3299476375
 C         -2.5821750508        1.6513875033        2.3664429823
 C         -3.7244701743        1.9952842606        3.0623889944
 C         -4.4405219631        3.1519322914        2.7595499442
 C         -4.0119556936        4.0173150731        1.7729303611
 C         -2.8695085743        3.6862431565        1.0566209536
 C         -2.1373299626        4.3321118160        0.0057172526
 N         -2.3555577667        5.4786500931       -0.6129019895
 C         -1.5136826570        5.8234530634       -1.5663338524
 C         -0.4268684250        5.0440578386       -1.9616937974
 C         -0.1726718163        3.8401255340       -1.3265805057
 C         -1.0445155479        3.4768993842       -0.3117807037
 C         -1.0758772330       -0.0305641118       -0.0080976320
 N         -2.4796036555       -0.0443934869       -0.0426180611
 C         -3.2664142074        0.7622821210       -0.8429247135
 C         -2.8852393036        1.6197224566       -1.8655051906
 C         -3.8765624721        2.3292733884       -2.5135540687
 C         -5.2201256884        2.1757881425       -2.1753939578
 C         -5.6111280437        1.2834309250       -1.1978117138
 C         -4.6292123359        0.5641530117       -0.5291768883
 C         -4.6606897002       -0.4381188534        0.4942266202
 N         -5.6837084155       -0.9918599473        1.1210357842
 C         -5.4145100055       -1.8907471058        2.0452110545
 C         -4.1211376424       -2.2573623898        2.4175559642
 C         -3.0328326849       -1.6906021830        1.7786776875
 C         -3.3071739397       -0.7794414587        0.7703624756
 C         -0.3306287004       -1.2084418657       -0.2335266446
 N         -1.0084610747       -2.4248171138       -0.4525008333
 C         -0.8819138369       -3.5494119307        0.3435257064
 C          0.0154398431       -3.8025679875        1.3719157585
 C         -0.0870462594       -5.0127144247        2.0305104682
 C         -1.0595914461       -5.9513342217        1.6878361653
 C         -1.9649817275       -5.7004678974        0.6770773912
 C         -1.8794473380       -4.4904611530        0.0000482821
 C         -2.6404970807       -3.8985350799       -1.0611654304
 N         -3.6834226214       -4.3586549607       -1.7300921049
 C         -4.1812760629       -3.5922688646       -2.6786505854
 C         -3.6480141490       -2.3533936476       -3.0338578343
 C         -2.5478732046       -1.8560674780       -2.3580655020
 C         -2.0555113703       -2.6274564944       -1.3166437192
 C          1.0429919827       -1.1818911507       -0.2281515548
 N          3.8563535602       -1.1080470603       -0.1485998267
 C          5.2538836336       -3.5218174265       -0.3700292730
 C          5.9739992178       -4.6921286915       -0.4980497725
 H          7.9209511514       -5.5753136643       -0.6327771970
 H          9.1052021100       -3.4189941550       -0.4651048929
 H          7.8139917057       -1.3182055398       -0.2348359924
 H          7.7656341727        1.5664685148        0.2070876208
 H          8.9873332625        3.7089089085        0.4360236065
 H          7.7322389861        5.8215385065        0.6419014983
 H          5.2665640699        5.7990395321        0.6201611331
 H          4.0549174574        3.6531636032        0.3912046688
 H          1.5288733344        2.1117688944        0.4523455265
 H         -2.0136236515        0.7717038407        2.6270168806
 H         -4.0673269572        1.3537530973        3.8604971218
 H         -5.3347089257        3.3777823262        3.3201340742
 H         -4.5399750883        4.9311115755        1.5522114770
 H         -1.7129320611        6.7729820421       -2.0434597705
 H          0.2167524808        5.3871741104       -2.7564590623
 H          0.6637466613        3.2176487503       -1.6100282451
 H         -1.8496417370        1.7236016566       -2.1543017265
 H         -3.6030894890        3.0147634737       -3.3018566635
 H         -5.9629498759        2.7563137417       -2.7007763520
 H         -6.6496075931        1.1354243285       -0.9483919137
 H         -6.2735003245       -2.3388626546        2.5247866086
 H         -3.9727711857       -2.9839545866        3.2006346137
 H         -2.0234924536       -1.9497775964        2.0631981207
 H          0.7649077873       -3.0775792577        1.6515123179
 H          0.6018560610       -5.2350046056        2.8319136381
 H         -1.1036683323       -6.8844479220        2.2290474854
 H         -2.7283605256       -6.4133515070        0.4091240227
 H         -5.0404674920       -3.9918044921       -3.1988800141
 H         -4.0882108694       -1.7917942787       -3.8425016554
 H         -2.0927977287       -0.9187954399       -2.6408525434
 H          1.6057242289       -2.0786424221       -0.4307437464
 H          4.1752824336       -3.5330208363       -0.3402228056
 H          5.4564164216       -5.6374309578       -0.5703717981
