96
 energy: -158.907605820864 gnorm: 0.000050151440 xtb: 6.7.1 (edcfbbe)
C            7.26688913625505       -4.73958710121356       -0.07278994408461
C            7.95284457178740       -3.53551348963489       -0.11722948063344
C            7.25866081497287       -2.34162427885001       -0.10071552476631
C            5.86627106944228       -2.34575330377640       -0.04031047051164
C            5.12737623172519       -1.08494762697848       -0.02243444826029
N            5.81858301325910        0.05057951910141       -0.00152836682205
C            5.10673880010555        1.17316146550899        0.02142204506977
C            5.82321550688528        2.44697220152221        0.03778582984188
C            7.21597659522387        2.46734017690823        0.08437334197650
C            7.88909800669979        3.67326594279426        0.09913186678324
C            7.18165122708641        4.86520516709663        0.06686656735400
C            5.79613485157124        4.85042260778135        0.01985112867427
C            5.11661283458920        3.64821436293632        0.00558897818275
N            3.77510114200385        1.20677876262020        0.02959330469975
C            3.16825939565357        0.02630423910461        0.00206628935402
C            1.70465244410143        0.01208271502722        0.00422029492431
C            0.99719799311692        1.17607697608789        0.28140223623159
C           -0.38897652939747        1.17124711527660        0.28557458318395
N           -1.08372694455216        2.35502234588345        0.56676559397229
C           -2.17227117619402        2.48614192904691        1.41450015364000
C           -2.62218783514550        1.62063280264853        2.39950593865771
C           -3.74899433286323        1.98581925605821        3.11042874615834
C           -4.39785141227988        3.19562162273721        2.87348785189213
C           -3.91446748188408        4.09149769359882        1.94141799406909
C           -2.78716067944618        3.74010646809839        1.21127487065774
C           -2.01278878634661        4.41058066700826        0.20483407340817
N           -2.17733191516956        5.60688846604607       -0.33698112202907
C           -1.30417092264853        5.96073850453103       -1.26091502843190
C           -0.25017299389932        5.15778068745349       -1.69426942109134
C           -0.06565983002345        3.90041480382886       -1.14231135557849
C           -0.96523329708332        3.52349236330767       -0.15869865637026
C           -1.09073940393188       -0.01494627846997       -0.00330413802796
N           -2.48909025230487       -0.02166088216899       -0.02284510485281
C           -3.28879889261810        0.82643634599309       -0.77320829493302
C           -2.92136465769665        1.74934934745429       -1.74037314092985
C           -3.92573701887037        2.47521569944852       -2.35110265782860
C           -5.26637665083048        2.26954508830032       -2.03453825153711
C           -5.64117698345068        1.30840469680598       -1.11745252988844
C           -4.64640807867760        0.57504280124741       -0.48555805679344
C           -4.66546482489768       -0.49352575706920        0.47311504924531
N           -5.69220647867563       -1.09565698301569        1.05092320586540
C           -5.40514555467391       -2.05062135009556        1.91490484665461
C           -4.11025662551297       -2.42136801272395        2.27269448626061
C           -3.02458109528349       -1.79126355775325        1.68847511793379
C           -3.31218801854404       -0.82825335262522        0.73554747506750
C           -0.36582980092682       -1.18996169587380       -0.27292726348334
N           -1.03562398538980       -2.39101958570740       -0.54140368870761
C           -0.86896189350460       -3.56453500316305        0.18059631897978
C            0.04805655565089       -3.86189341812032        1.17797212368710
C           -0.02199671859511       -5.11213678180773        1.76368662355548
C           -0.98324469696283       -6.04522974294621        1.38032380245164
C           -1.91022293187969       -5.74837087527402        0.40174501057426
C           -1.85537692715502       -4.49955212905750       -0.20279888393969
C           -2.65107138793243       -3.85919293650294       -1.21208555978920
N           -3.69440545198142       -4.31626470709277       -1.88648538927534
C           -4.22117647437407       -3.49977921091973       -2.77879962003856
C           -3.71850553792407       -2.23392577912663       -3.07688057735686
C           -2.62040927687357       -1.74637545985404       -2.38916136014078
C           -2.10263250208749       -2.56391866505602       -1.39770468450722
C            1.02069205716337       -1.16680132265279       -0.26702610797925
N            3.79667744590808       -1.14262575036905       -0.02724428792406
C            5.18119651262205       -3.55905338370308        0.00444528078352
C            5.88188280061036       -4.74906037634099       -0.01152263763609
H            7.81244828456644       -5.67175540926622       -0.08579364082799
H            9.03183673622361       -3.53120122059064       -0.16501367810036
H            7.77487340432708       -1.39524504761790       -0.13580844689414
H            7.74906472676156        1.53007647148721        0.11009661370568
H            8.96841676014182        3.68786596052295        0.13607521973956
H            7.71068896513786        5.80685250951285        0.07852259407231
H            5.24713517023207        5.78028663556609       -0.00527055533491
H            4.03895798465948        3.61837962879257       -0.03193145839712
H            1.53796660854459        2.07661966764279        0.52402326904552
H           -2.10625888067230        0.69716769332020        2.61501180312152
H           -4.13075248881078        1.31840740923586        3.86861343357097
H           -5.28044469821401        3.43876583370158        3.44517486777461
H           -4.38603942234408        5.04641305691191        1.77369796041632
H           -1.45459579195839        6.94314991156832       -1.68779485022955
H            0.41744252439768        5.51628112723269       -2.46245714252877
H            0.73406801266591        3.25180565227693       -1.47166183888114
H           -1.88832281464300        1.89525867540079       -2.02012065176290
H           -3.66214043508702        3.21408839961117       -3.09312846950114
H           -6.01983949077512        2.86203969142854       -2.53073277941110
H           -6.67665081803425        1.11545501730749       -0.88769648526562
H           -6.25850022139073       -2.54084126188455        2.36314959364227
H           -3.95399757602634       -3.19328854268884        3.00977205012893
H           -2.01369206462659       -2.04198478165092        1.97643889667238
H            0.78822454334303       -3.14277998021191        1.49626759257884
H            0.68424011343265       -5.36853572414867        2.53961973978366
H           -1.00203554991496       -7.01022437948534        1.86403359321101
H           -2.66827770525043       -6.45460037321837        0.10340849170702
H           -5.08416915270140       -3.88395567292712       -3.30508227304811
H           -4.18048369606868       -1.63874974395662       -3.84874837428854
H           -2.19226195139876       -0.78403161933181       -2.62764636955297
H            1.57938612423562       -2.05778210019240       -0.50395355211759
H            4.10363088131253       -3.54845865590875        0.05353964303345
H            5.34953089083072       -5.68820805103435        0.02353242994034
