  96
       -158.90753343
 C          7.2721553238       -4.7382088327       -0.0794617284
 C          7.9566157556       -3.5332129212       -0.1213536333
 C          7.2608055887       -2.3402582913       -0.1063314906
 C          5.8682275358       -2.3462199518       -0.0501541596
 C          5.1275380188       -1.0863823520       -0.0331307207
 N          5.8172538235        0.0501247652       -0.0057537212
 C          5.1035351631        1.1714449565        0.0183814748
 C          5.8152609201        2.4477511433        0.0435193877
 C          7.2078714152        2.4749075898        0.0888744963
 C          7.8744530894        3.6843085585        0.1152946688
 C          7.1607320236        4.8727755184        0.0961336688
 C          5.7753313988        4.8511901628        0.0495034248
 C          5.1023883108        3.6455515078        0.0233401042
 N          3.7719228362        1.2026765742        0.0227183924
 C          3.1667005413        0.0216800454       -0.0114578547
 C          1.7031930229        0.0079264166       -0.0105587274
 C          0.9977615421        1.1725125052        0.2691729697
 C         -0.3883178037        1.1699549965        0.2750318681
 N         -1.0801824736        2.3545097619        0.5594146427
 C         -2.1661336387        2.4868771594        1.4102029095
 C         -2.6181344469        1.6192345386        2.3922639878
 C         -3.7407334886        1.9873293648        3.1083581347
 C         -4.3831581651        3.2020617315        2.8797121525
 C         -3.8970978952        4.0999019037        1.9509108389
 C         -2.7742938676        3.7454434204        1.2154296346
 C         -1.9973401599        4.4177798587        0.2122099775
 N         -2.1550886484        5.6190927500       -0.3204022211
 C         -1.2796845912        5.9751682796       -1.2413650736
 C         -0.2303188361        5.1694469013       -1.6807003852
 C         -0.0535473351        3.9065124456       -1.1389795268
 C         -0.9553492124        3.5270543860       -0.1583620837
 C         -1.0923916980       -0.0150713466       -0.0129793225
 N         -2.4908043391       -0.0192182238       -0.0299127199
 C         -3.2909353503        0.8264694373       -0.7825592457
 C         -2.9243952107        1.7518563588       -1.7476998247
 C         -3.9301400122        2.4717915108       -2.3632860813
 C         -5.2711732903        2.2585795014       -2.0534325736
 C         -5.6446841514        1.2965560537       -1.1367850680
 C         -4.6486089847        0.5693216429       -0.4999207645
 C         -4.6669616965       -0.4987360045        0.4592842568
 N         -5.6934272807       -1.1043420387        1.0340721825
 C         -5.4055131288       -2.0575158930        1.8996246390
 C         -4.1103432463       -2.4232452218        2.2618743538
 C         -3.0251704788       -1.7898709469        1.6804680663
 C         -3.3134434739       -0.8284522377        0.7260583145
 C         -0.3695590226       -1.1911741889       -0.2840817523
 N         -1.0397530128       -2.3932844015       -0.5465486695
 C         -0.8652392962       -3.5646671431        0.1775492211
 C          0.0601939518       -3.8580112159        1.1683437113
 C         -0.0023677963       -5.1072136004        1.7572286542
 C         -0.9647336947       -6.0431549198        1.3838601114
 C         -1.9009033761       -5.7498002549        0.4130545968
 C         -1.8536268185       -4.5020945399       -0.1945120544
 C         -2.6601986590       -3.8650451371       -1.1972306058
 N         -3.7113667794       -4.3241740449       -1.8579332561
 C         -4.2492635581       -3.5099688221       -2.7455955376
 C         -3.7495364695       -2.2453672056       -3.0540036203
 C         -2.6431305654       -1.7560219481       -2.3811137494
 C         -2.1146796839       -2.5699577091       -1.3922120201
 C          1.0171701539       -1.1695426456       -0.2819957316
 N          3.7968819797       -1.1461954066       -0.0439142378
 C          5.1846734551       -3.5604972019       -0.0078620563
 C          5.8870031413       -4.7495547595       -0.0221928925
 H          7.8189626842       -5.6696568796       -0.0917090159
 H          9.0357240344       -3.5275620529       -0.1662513311
 H          7.7757679920       -1.3931309857       -0.1391601439
 H          7.7459594977        1.5402823848        0.1052377485
 H          8.9536963648        3.7044399794        0.1516762520
 H          7.6847745827        5.8170689866        0.1172739921
 H          5.2211059444        5.7781512082        0.0337765466
 H          4.0249046536        3.6104593586       -0.0138511577
 H          1.5403053409        2.0716531567        0.5128864770
 H         -2.1067003992        0.6921635749        2.6025622151
 H         -4.1239608922        1.3181309395        3.8642071688
 H         -5.2625572142        3.4475535251        3.4553110738
 H         -4.3630467534        5.0587250838        1.7899481757
 H         -1.4244234851        6.9616437714       -1.6607864150
 H          0.4398514060        5.5302437282       -2.4455663782
 H          0.7426013457        3.2562115424       -1.4734863672
 H         -1.8911460746        1.9039737624       -2.0232769643
 H         -3.6671849876        3.2115878279       -3.1046428563
 H         -6.0256037299        2.8459136711       -2.5542631730
 H         -6.6799230835        1.0978153329       -0.9109510988
 H         -6.2583478443       -2.5503911604        2.3459403358
 H         -3.9537808195       -3.1937697811        3.0003108109
 H         -2.0141264782       -2.0369100203        1.9712388113
 H          0.8012206486       -3.1367503537        1.4797096360
 H          0.7103182021       -5.3601216005        2.5284245009
 H         -0.9772282814       -7.0072482821        1.8695335408
 H         -2.6602240266       -6.4579506279        0.1227058289
 H         -5.1189760676       -3.8951894915       -3.2599696744
 H         -4.2205179393       -1.6526512473       -3.8223123616
 H         -2.2170705950       -0.7949318961       -2.6282301676
 H          1.5740516674       -2.0610081760       -0.5212965156
 H          4.1069718433       -3.5513259067        0.0383502065
 H          5.3558931962       -5.6894660189        0.0106398963
