  89
       -140.74340845
 C         -6.9732546380        5.4471981403       -0.7619160639
 C         -5.6748771260        5.0153262496       -0.9845645167
 C         -5.3258363821        3.7053016967       -0.7208008039
 C         -6.2788505388        2.8145398811       -0.2303211527
 C         -5.9108931382        1.4275778718        0.0517355867
 N         -6.8530018622        0.6089887850        0.5093556578
 C         -6.4745829861       -0.6428246405        0.7508796797
 C         -7.4748253028       -1.5779026978        1.2640513821
 C         -8.7772568094       -1.1468592621        1.5085755342
 C         -9.7167039008       -2.0308786526        2.0024359341
 C         -9.3669107235       -3.3483085473        2.2550680804
 C         -8.0731398616       -3.7827240603        2.0110283825
 C         -7.1287443515       -2.9038233905        1.5178334023
 N         -5.2379692270       -1.0946481182        0.5593062045
 C         -4.3591243913       -0.2070347198        0.1051523223
 C         -2.9818307582       -0.6521874257       -0.1047333812
 C         -2.6183627464       -1.9703343288        0.1633591728
 C         -1.3116749592       -2.3722245788       -0.0156329587
 C         -0.3521081538       -1.4738338549       -0.4735353229
 N          0.9764369173       -1.9003486728       -0.6211669879
 C          1.4075890045       -2.9116550148       -1.4564431362
 C          0.6658645852       -3.8043559221       -2.2160705378
 C          1.3551311907       -4.7146000806       -2.9944836947
 C          2.7479485660       -4.7361865906       -3.0280725221
 C          3.4907858448       -3.8359004027       -2.2905498199
 C          2.8211434050       -2.9117181707       -1.4994934846
 C          3.2544319477       -1.8384766518       -0.6492671415
 C          4.5002143781       -1.3218614074       -0.3255173156
 C          4.5587689852       -0.2356088763        0.5334493504
 N          5.7954537801        0.3538740126        0.8441148516
 C          6.9064593685       -0.2883723751        1.3419765141
 C          7.0737072334       -1.6222675810        1.6864909673
 C          8.2988048886       -2.0073747010        2.1949170402
 C          9.3362516174       -1.0922441262        2.3645656720
 C          9.1706735334        0.2389380190        2.0385479384
 C          7.9478927804        0.6519395182        1.5258687858
 C          7.4268106824        1.9220313879        1.1054471613
 C          7.9607418921        3.2020839329        1.0303475495
 C          7.1682664262        4.2218253720        0.5425577428
 C          5.8618027206        3.9777802917        0.1218281723
 C          5.3060844605        2.7150213758        0.1875718527
 C          6.0932562019        1.6902068623        0.6946537168
 C          3.3952308527        0.2959880552        1.1024614099
 C          2.1507674538       -0.2054440154        0.7892895950
 C          2.0833940334       -1.2483642444       -0.1233338815
 C         -0.7102451403       -0.1494395503       -0.7737175200
 C          0.2780175301        0.8129895846       -1.2964448362
 C          0.4109227678        2.0654203515       -0.7038287964
 C          1.3714209945        2.9543631328       -1.1492768182
 C          2.2047553097        2.6085116312       -2.1997328560
 C          2.0579393237        1.3770044483       -2.8158190402
 C          1.1002672612        0.4851385506       -2.3709856679
 C         -2.0240598111        0.2437268202       -0.5696231643
 N         -4.6494388478        1.0618614729       -0.1620994245
 C         -7.5827543670        3.2533076544       -0.0089524040
 C         -7.9250105579        4.5649131843       -0.2744414146
 H         -7.2436114078        6.4724005750       -0.9688471679
 H         -4.9349419212        5.7043429377       -1.3649074041
 H         -4.3206740434        3.3517904514       -0.8891887826
 H         -9.0312098501       -0.1181309831        1.3067786290
 H        -10.7255793324       -1.6952315961        2.1930511912
 H        -10.1031584100       -4.0372752662        2.6427236869
 H         -7.8032209065       -4.8099610626        2.2080526832
 H         -6.1171399725       -3.2238826868        1.3231298211
 H         -3.3674545698       -2.6571033459        0.5229496286
 H         -1.0119432123       -3.3835540898        0.2165467197
 H         -0.4133672322       -3.7839963924       -2.2076833108
 H          0.8019499778       -5.4230932816       -3.5929574034
 H          3.2490208220       -5.4645712814       -3.6477399008
 H          4.5696514383       -3.8435664950       -2.3277813700
 H          5.4029652969       -1.7383203040       -0.7444574289
 H          6.2690423003       -2.3326528458        1.5704243635
 H          8.4558206068       -3.0398534270        2.4706448681
 H         10.2795721202       -1.4334447151        2.7642712905
 H          9.9713685840        0.9488289897        2.1820629649
 H          8.9768840256        3.3903026088        1.3429746078
 H          7.5643898430        5.2243793161        0.4772352907
 H          5.2724682640        4.7954879790       -0.2670891049
 H          4.2989114605        2.5274169786       -0.1530898416
 H          3.4879762082        1.1114888774        1.8033000722
 H          1.2608923548        0.2003051806        1.2433471694
 H         -0.2278593737        2.3305975841        0.1264758449
 H          1.4747148183        3.9176905087       -0.6712039423
 H          2.9628697324        3.2977018327       -2.5414102400
 H          2.6960923155        1.1076632797       -3.6444801872
 H          0.9860486502       -0.4681588178       -2.8665626388
 H         -2.3265070437        1.2541009974       -0.7967844352
 H         -8.3100863086        2.5528404685        0.3702326037
 H         -8.9360623662        4.9039975644       -0.1027689386
