  106
       -152.66915495
 C         -6.6433229088        3.0708602324       -0.1703559394
 C         -7.3161313818        1.6908343974       -0.0679611170
 C         -8.5678556176        1.8344074326        0.8017588933
 C         -7.7594391449        1.2340915684       -1.4683621375
 C         -6.3187056756        0.7003628606        0.4866230205
 C         -6.5194138890       -0.0001800039        1.7034642168
 C         -5.6094191132       -0.8827990455        2.2020554954
 C         -4.3964449096       -1.1244317670        1.4848292457
 C         -4.1985887041       -0.4165740862        0.2342981392
 C         -5.1246610399        0.4546701929       -0.2362814711
 C         -2.8879889365       -0.8439039330       -0.3949960456
 C         -3.2345819060       -1.5093684774       -1.7051654537
 C         -3.3990616993       -0.7669691974       -2.8714744474
 C         -3.8073339979       -1.4065304482       -4.0281123402
 C         -4.0361198390       -2.7743718679       -3.9797344076
 N         -3.8832496421       -3.4902423239       -2.8784861639
 C         -3.5009863400       -2.8738261907       -1.7756965227
 C         -1.8561142271        0.2521898105       -0.5395066047
 C         -0.7480390317        0.0248406015       -1.3655096177
 C          0.3302476179        0.8827969362       -1.3856115109
 C          0.2928069142        1.9927679380       -0.5545749549
 C         -0.8582245513        2.2908339095        0.2070873883
 C         -1.9243128968        1.4025012656        0.2298122432
 C         -0.5914768317        3.5421424514        0.8619302119
 C         -1.3278270827        4.3417635539        1.7252283899
 C         -0.7523880732        5.5022346209        2.2046791613
 C          0.5447791311        5.8603605233        1.8457589265
 C          1.2982309100        5.0803896905        0.9880376776
 C          0.7174066347        3.9266202893        0.4842346572
 N          1.2414827213        2.9768104277       -0.3717283652
 C          2.5779849202        2.8595516901       -0.7763888879
 C          3.2336113476        3.8994110138       -1.4286299900
 C          4.5531813127        3.7362844640       -1.8132387418
 C          5.2252017249        2.5534239375       -1.5642111162
 C          4.5772027242        1.5148726464       -0.8960723162
 N          5.2475282862        0.3224970124       -0.6023738118
 C          6.4965385828        0.2195891678       -0.0174248062
 C          7.3617036903        1.2166507101        0.4096252142
 C          8.5568648781        0.8324029082        0.9876912310
 C          8.8882272808       -0.5106070504        1.1513990491
 C          8.0189306842       -1.5075016098        0.7569364680
 C          6.8117895678       -1.1454094154        0.1736353609
 C          5.6930271849       -1.8972305401       -0.3205180012
 C          5.4242973896       -3.2566683833       -0.4141489479
 C          4.2321763146       -3.6590508064       -0.9819027237
 C          3.3235281857       -2.7240969289       -1.4714197509
 C          3.5689417395       -1.3671787780       -1.3863638130
 C          4.7500367656       -0.9535618982       -0.7880638864
 C          3.2547739843        1.6758981864       -0.5022865157
 C         -2.3481908622       -1.7981998175        0.6538811855
 C         -1.1473157963       -2.4263189836        0.6925572609
 C         -0.7956122046       -3.2473819132        1.7913031275
 C          0.5657928118       -3.9024694981        1.7989160935
 C          0.8245325893       -4.7360544662        3.0561205380
 C          1.6460199013       -2.8095693596        1.7169097178
 C          0.6907903153       -4.8269987616        0.5768576053
 C         -1.7400090962       -3.4017981680        2.8382188458
 C         -2.9511778570       -2.7772504173        2.8339078567
 C         -3.2992638107       -1.9230357365        1.7410057932
 H         -6.3253540977        3.4059443560        0.8147200222
 H         -5.7714184125        3.0394285480       -0.8175580462
 H         -7.3436502112        3.7988442026       -0.5739083570
 H         -8.3150531163        2.1922771613        1.7969925994
 H         -9.0955989792        0.8873272732        0.8857108975
 H         -9.2434584645        2.5564315469        0.3475838820
 H         -8.4863525335        1.9334367180       -1.8756575344
 H         -8.2188698322        0.2495880596       -1.4127369504
 H         -6.9187077787        1.1781158556       -2.1536485013
 H         -7.4271112243        0.1677921860        2.2600452379
 H         -5.7907711541       -1.4044255800        3.1293668883
 H         -4.9508619231        0.9671203692       -1.1700485473
 H         -3.1957937990        0.2947852975       -2.8698712980
 H         -3.9420867147       -0.8588530615       -4.9484808636
 H         -4.3530636494       -3.3238964476       -4.8559240939
 H         -3.3967257268       -3.4996193275       -0.8987865683
 H         -0.7386864088       -0.8481783584       -2.0011097615
 H          1.1734715580        0.7016278531       -2.0342401991
 H         -2.7884786767        1.5972769522        0.8458390738
 H         -2.3280064894        4.0551007288        2.0135795944
 H         -1.3095464313        6.1399615469        2.8742655666
 H          0.9730848601        6.7662393592        2.2479846492
 H          2.3084148166        5.3586575742        0.7284849429
 H          2.7057615018        4.8150278789       -1.6459251341
 H          5.0601957928        4.5373292564       -2.3296895813
 H          6.2430604920        2.4224824038       -1.8969217796
 H          7.1090402406        2.2611327302        0.3087681915
 H          9.2476541569        1.5915153619        1.3233136494
 H          9.8342661785       -0.7699855921        1.6023984008
 H          8.2653385112       -2.5487373851        0.8998740916
 H          6.1395317889       -3.9803865692       -0.0535050389
 H          4.0027111685       -4.7108717117       -1.0646906151
 H          2.4099317347       -3.0677016126       -1.9340330035
 H          2.8659580117       -0.6559629962       -1.7879940759
 H          2.7556859864        0.8908528759        0.0441844229
 H         -0.4503817834       -2.3011320369       -0.1208183344
 H          1.8211502408       -5.1694523140        3.0031030605
 H          0.1080030379       -5.5495440180        3.1412846824
 H          0.7733435460       -4.1194725369        3.9503216735
 H          1.5510344539       -2.2266983366        0.8064384534
 H          1.5621042625       -2.1360161284        2.5673162857
 H          2.6357516263       -3.2605479205        1.7251357426
 H          1.6752932441       -5.2886789011        0.5619191401
 H         -0.0623271999       -5.6110355528        0.6198670155
 H          0.5573482533       -4.2754756843       -0.3483872446
 H         -1.4924627377       -4.0322236457        3.6769919100
 H         -3.6442604784       -2.9028467893        3.6516690882
