  32
        -48.90560151
 C          2.8420225810        2.4236271939        0.0121532483
 C          3.5328276635        1.2204209199       -0.0049746089
 C          2.8363312074        0.0000037444       -0.0067189552
 C          3.5329595500       -1.2202738948       -0.0167094862
 C          2.8422450196       -2.4236519779       -0.0129732946
 C          1.4702127684       -2.4389447961       -0.0021154431
 C          0.7119713614       -1.2355373301        0.0038849674
 C         -0.7120126618       -1.2355222415        0.0086446100
 C         -1.4703622292       -2.4387957683        0.0153445449
 C         -2.8424984790       -2.4234568946        0.0098637106
 C         -3.5331114902       -1.2201352122       -0.0019808786
 C         -2.8363048425        0.0001135713       -0.0043470792
 C         -3.5327751627        1.2205223167       -0.0139458772
 C         -2.8418451113        2.4237455833       -0.0150434496
 C         -1.4697472001        2.4387872025       -0.0062438206
 C         -0.7118804841        1.2352974855        0.0031016036
 C          0.7119911558        1.2352460643        0.0091512196
 C          1.4699830340        2.4386803412        0.0202769376
 C          1.4109859257       -0.0001284837        0.0023309426
 C         -1.4109863284       -0.0000528335        0.0027540768
 H          3.3896357046        3.3550162473        0.0179984887
 H          4.6123549374        1.2085888257       -0.0151927881
 H          4.6125241299       -1.2082329601       -0.0255355958
 H          3.3898940663       -3.3550304536       -0.0181538979
 H          0.9673152323       -3.3910315449        0.0011205708
 H         -0.9676713975       -3.3909876506        0.0261186048
 H         -3.3901480749       -3.3548431125        0.0144896586
 H         -4.6126809354       -1.2079507641       -0.0082129179
 H         -4.6123564369        1.2085441292       -0.0221376368
 H         -3.3892376160        3.3552162511       -0.0266035808
 H         -0.9665225570        3.3908032796       -0.0093874775
 H          0.9668181414        3.3905632553        0.0362667270
  32
        -48.90523729
 C          2.8338000288        2.4154117787        0.2181268211
 C          3.5274684031        1.2179086480        0.1079622007
 C          2.8344162987        0.0001225737       -0.0017960114
 C          3.5274417497       -1.2175203909       -0.1136602600
 C          2.8336846304       -2.4153958105       -0.2182046649
 C          1.4618323119       -2.4327276152       -0.1767206334
 C          0.7102850120       -1.2336011335       -0.0427600161
 C         -0.7103946676       -1.2335794702        0.0455789284
 C         -1.4621682125       -2.4325980229        0.1792378821
 C         -2.8341115777       -2.4152884878        0.2172801507
 C         -3.5276651557       -1.2175493926        0.1096898063
 C         -2.8344191664        0.0000866201       -0.0006849437
 C         -3.5272369377        1.2177893412       -0.1127835147
 C         -2.8333493385        2.4154493909       -0.2192915476
 C         -1.4615138319        2.4325694998       -0.1781314512
 C         -0.7102461419        1.2334010416       -0.0428053449
 C          0.7103311543        1.2333442784        0.0462060996
 C          1.4618516007        2.4323526263        0.1817672660
 C          1.4097359147       -0.0001068461        0.0005989054
 C         -1.4097501721       -0.0000557047        0.0007021545
 H          3.3800450208        3.3409057452        0.3304598624
 H          4.6070636621        1.2080841215        0.1194922601
 H          4.6069654095       -1.2071940484       -0.1311199692
 H          3.3797785492       -3.3413054639       -0.3282133725
 H          0.9503192674       -3.3765609813       -0.2680912401
 H         -0.9507911846       -3.3760533959        0.2748297684
 H         -3.3803439684       -3.3409041629        0.3283156036
 H         -4.6072553906       -1.2073983067        0.1227683965
 H         -4.6067727633        1.2076719163       -0.1295383141
 H         -3.3793483820        3.3412181504       -0.3307480238
 H         -0.9495607651        3.3760569296       -0.2709959434
 H          0.9499970399        3.3753254892        0.2791252068
