  102
       -132.63748927
 C          7.1507022563        4.8652810281       -0.6536618241
 C          7.1595483299        3.8126740174        0.4642798157
 C          7.2740311256        4.5435856695        1.8047200609
 C          8.3850202711        2.9006160135        0.3094562989
 C          5.9001303672        2.9682355304        0.3631887556
 C          4.9699124751        2.8649327180        1.3929239065
 C          3.8352092839        2.0868300249        1.2633783910
 C          3.5959605851        1.3787625674        0.0904090876
 N          2.4212515111        0.5976746394       -0.0413519193
 C          2.5385149542       -0.7775304843       -0.1224840981
 C          3.8040898017       -1.3640078458       -0.0434950830
 C          3.9735501052       -2.7196151216       -0.2530354625
 C          2.8846235687       -3.5355134591       -0.5797628900
 C          3.1262221139       -5.0035922359       -0.8862781573
 C          3.7762471698       -5.6737726484        0.3330108364
 C          4.0660257370       -5.1073196997       -2.0965752381
 C          1.8392880593       -5.7646828846       -1.2145768816
 C          1.6267207447       -2.9565237379       -0.5798123347
 C          1.3871582644       -1.6049532131       -0.2754970547
 B          0.0039188048       -0.9652753169       -0.0922929464
 C         -1.3726240362       -1.6030633831        0.1403795371
 C         -1.5916175510       -2.9575962631        0.4462840492
 C         -2.8416749106       -3.5093800489        0.6679529073
 C         -3.0597708441       -4.9820633242        0.9709097368
 C         -1.7615928555       -5.7930419608        0.9501065403
 C         -4.0072830502       -5.5776098473       -0.0807566617
 C         -3.6865268783       -5.1134533929        2.3667043862
 C         -3.9462637644       -2.6531227677        0.6199396597
 C         -3.7847265132       -1.3030604106        0.3736400177
 C         -2.5208663344       -0.7604515029        0.1312122645
 N         -2.4078238354        0.6037063548       -0.0761487920
 C         -3.6016289177        1.3717251342       -0.1232065604
 C         -3.9844956952        2.1549492725        0.9581628933
 C         -5.1460207111        2.9032399328        0.9028519415
 C         -5.9580088887        2.8971716303       -0.2262583869
 C         -7.2387368937        3.7092764543       -0.3293216631
 C         -7.0986383426        4.7131521714       -1.4828388824
 C         -8.4153749410        2.7619683866       -0.6040054771
 C         -7.5467870739        4.4911933715        0.9505140208
 C         -5.5571458795        2.1071766077       -1.3038669578
 C         -4.4024238285        1.3536818147       -1.2597949205
 C         -1.2006068066        1.2818390234       -0.1650506478
 C         -1.1921454141        2.6658843323       -0.3502407332
 C          0.0132465962        3.3524300969       -0.4279111029
 C          1.2137291880        2.6660109377       -0.3153243433
 C          1.2135617615        1.2793294020       -0.1495592736
 C          0.0057254476        0.5507528261       -0.1120020399
 C          4.5175756312        1.4723515765       -0.9497801755
 C          5.6445065558        2.2531105734       -0.8082972327
 H          6.2703413852        5.4988420418       -0.5666662326
 H          7.1412283909        4.4018701525       -1.6362107079
 H          8.0362339056        5.4933777920       -0.5828238211
 H          6.4364606564        5.2211529697        1.9537564024
 H          7.3163242134        3.8398699607        2.6327569678
 H          8.1888822715        5.1326322376        1.8186593138
 H          8.3905590093        2.1432431579        1.0906293761
 H          9.2994204225        3.4847605061        0.3884905653
 H          8.3848011003        2.3968665875       -0.6531365902
 H          5.1177491810        3.3921786227        2.3209776871
 H          3.1236343409        2.0206900185        2.0735366015
 H          4.6723274159       -0.7610711679        0.1752805622
 H          4.9694135047       -3.1284146895       -0.1811703462
 H          3.1293728212       -5.5773471823        1.2026708873
 H          3.9376223434       -6.7322184085        0.1375978011
 H          4.7352695802       -5.2218733302        0.5704574396
 H          3.6137535127       -4.6302067147       -2.9637945349
 H          4.2561119190       -6.1518455160       -2.3361907204
 H          5.0187472793       -4.6232751212       -1.8998415587
 H          1.1590069240       -5.7598164821       -0.3665379010
 H          2.0791202422       -6.8009573678       -1.4463882520
 H          1.3380077690       -5.3337602085       -2.0781467445
 H          0.7674667383       -3.5537445413       -0.8281438076
 H         -0.7179780710       -3.5786009040        0.5256804068
 H         -1.9809488594       -6.8364055583        1.1702165316
 H         -1.0609069853       -5.4318365704        1.6993943006
 H         -1.2934288965       -5.7472740584       -0.0304098619
 H         -3.5821118252       -5.4629731006       -1.0758635274
 H         -4.9763677870       -5.0867512157       -0.0660464405
 H         -4.1602483878       -6.6381923572        0.1098005537
 H         -3.0247302281       -4.6842731647        3.1163562814
 H         -3.8500309270       -6.1620221607        2.6082872245
 H         -4.6413938127       -4.5976649771        2.4207499119
 H         -4.9434099128       -3.0254025431        0.7969772524
 H         -4.6574333951       -0.6674801267        0.3860876299
 H         -3.3667928806        2.1711847923        1.8443255064
 H         -5.4087188207        3.4934110286        1.7652415669
 H         -6.2577508419        5.3794751488       -1.3012771651
 H         -6.9337730037        4.2078082768       -2.4304479893
 H         -8.0017997761        5.3133255654       -1.5689370306
 H         -9.3438972959        3.3261711225       -0.6582913281
 H         -8.2873367271        2.2290678728       -1.5419059935
 H         -8.5030133543        2.0294376628        0.1957855378
 H         -6.7579136772        5.2060015935        1.1736685181
 H         -7.6724151076        3.8207130409        1.7977368625
 H         -8.4738663982        5.0459821351        0.8210008472
 H         -6.1537257229        2.0761611681       -2.2027574418
 H         -4.1102296208        0.7452357837       -2.1029811276
 H         -2.1151815811        3.2135186910       -0.4625431281
 H          0.0151750760        4.4195369827       -0.5838063132
 H          2.1411470203        3.2144628797       -0.3763724561
 H          4.3358920340        0.9322152626       -1.8675148188
 H          6.3354775144        2.3072936927       -1.6357914346
