  80
       -135.85163150
 F         -3.2872785303        6.0932632121       -0.1282272876
 C         -2.4071104097        5.2688150164        0.4603976366
 F         -2.2710125943        5.6959249786        1.7246663748
 F         -1.2209203088        5.5012908408       -0.1407080583
 C         -2.8079913643        3.8249709317        0.3691397841
 C         -3.5199463503        3.3804005807       -0.7394219531
 C         -3.8612433462        2.0468678735       -0.8416391953
 C         -3.4925523791        1.1547143310        0.1648195879
 N         -3.8055508738       -0.2060155522        0.0513834468
 C         -2.8756606046       -1.2292117886        0.0036565120
 C         -1.4343701614       -1.0499830912        0.0355577552
 C         -0.7879891513        0.0194154842       -0.5823979308
 C          0.5885389746        0.1107547631       -0.5563739666
 C          1.3620912732       -0.8621243911        0.0743799348
 C          2.8271364492       -0.7727080152        0.0669828701
 C          3.6053563348       -1.9139302928       -0.1228334437
 C          4.9818749178       -1.8349533112       -0.1656373934
 C          5.6183070584       -0.6068494016       -0.0028933740
 N          7.0141669299       -0.5222990987       -0.0539775250
 C          7.7411207621        0.3611216832       -0.8282886744
 C          7.2983000324        1.3140725102       -1.7344109131
 C          8.2501056575        2.0554246619       -2.4079806223
 C          9.6123560499        1.8539220996       -2.1974876416
 C         10.0592889751        0.8899973484       -1.3161155907
 C          9.1215953603        0.1316358705       -0.6277193279
 C          9.2234930116       -0.9427873271        0.3198864617
 C         10.2966990567       -1.5940835758        0.9134259038
 C         10.0389967076       -2.5992785143        1.8238909792
 C          8.7314605684       -2.9465820793        2.1563793772
 C          7.6474582762       -2.3133034238        1.5791615349
 C          7.9000307965       -1.3195219020        0.6443434593
 C          4.8500762532        0.5363064672        0.2037847547
 C          3.4729902166        0.4518581044        0.2295980501
 C          0.7110892541       -1.9358630606        0.6820506097
 C         -0.6633792451       -2.0307770391        0.6613385372
 N         -3.4437531521       -2.3991849519       -0.1190023177
 C         -4.7824916593       -2.1700848598       -0.1619147660
 C         -5.8225977136       -3.1247452749       -0.3368876127
 C         -5.5377679673       -4.4851932116       -0.4932685583
 C         -6.5529380332       -5.3847139968       -0.7023691770
 C         -7.8688190695       -4.9297149709       -0.7618422494
 C         -8.1601269501       -3.5951109101       -0.6023875203
 C         -7.1515537110       -2.6456191774       -0.3763363102
 C         -7.4270821916       -1.2349612745       -0.1655707529
 C         -8.7393986563       -0.7438173618       -0.1128482389
 C         -9.0144913796        0.5799788748        0.1349724452
 C         -7.9764656848        1.4770154791        0.3655279338
 C         -6.6763107922        1.0388827073        0.3143464484
 C         -6.3723319534       -0.2998101864        0.0273003359
 C         -5.0443523842       -0.8069915871       -0.0471561800
 C         -2.7743930184        1.6057789474        1.2692980030
 C         -2.4302622410        2.9395031073        1.3707020915
 H         -3.8038873161        4.0762964165       -1.5138407214
 H         -4.4134811192        1.6868432497       -1.6966993834
 H         -1.3551539128        0.7665426210       -1.1172258825
 H          1.0736199041        0.9322045474       -1.0627821349
 H          3.1231937863       -2.8681660046       -0.2749936343
 H          5.5731109757       -2.7197543163       -0.3484254914
 H          6.2453669104        1.4650528906       -1.9191201031
 H          7.9303357718        2.8052934641       -3.1163932244
 H         10.3247301662        2.4561035879       -2.7412220826
 H         11.1148966470        0.7216875819       -1.1655340153
 H         11.3097424946       -1.3131662397        0.6679713258
 H         10.8591243120       -3.1204594704        2.2945875522
 H          8.5608464663       -3.7258915809        2.8843629213
 H          6.6382160188       -2.5771706185        1.8575553127
 H          5.3408115100        1.4858243496        0.3573056456
 H          2.8895728295        1.3436673682        0.4059947257
 H          1.2909967311       -2.6932774343        1.1883258739
 H         -1.1673058608       -2.8642238904        1.1252341428
 H         -4.5043079543       -4.7921946920       -0.4524537636
 H         -6.3388858647       -6.4357937943       -0.8264474482
 H         -8.6705666540       -5.6330281866       -0.9352274657
 H         -9.1929675437       -3.2903073209       -0.6594473475
 H         -9.5688223386       -1.4164855804       -0.2586758633
 H        -10.0385091912        0.9209352349        0.1668892519
 H         -8.1903402457        2.5114359139        0.5893010189
 H         -5.8775309212        1.7341680961        0.5191778336
 H         -2.4892017202        0.9074775756        2.0409783212
 H         -1.8789399713        3.2957549770        2.2271036819
