  118
       -154.86462257
 C         -7.3775391924        0.7264144042       -2.8100892712
 C         -7.0812353775        1.3032326250       -1.4230807202
 C         -7.8763094784        0.4935580600       -0.3898071622
 C         -7.5439868817        2.7671160115       -1.4054465387
 C         -5.6048051987        1.2423230480       -1.0659989775
 C         -4.6414120680        0.7060583283       -1.9105256627
 C         -3.3087396257        0.6637851552       -1.5440145547
 C         -2.8887829599        1.1579228974       -0.3162939943
 C         -1.4492226803        1.1687601788        0.0106967826
 C         -0.7958725067        2.4017792114        0.0483202393
 C         -1.4740780848        3.6338849908       -0.1615015247
 C         -0.8447440085        4.8257181264       -0.0078732653
 C          0.5184066168        4.9019373323        0.3859242022
 C          1.1452740963        6.2690260957        0.5992828183
 C          0.3701000828        7.0071910520        1.6996145470
 C          1.0718964374        7.0638607668       -0.7122223041
 C          2.6139863326        6.1836078650        1.0239669546
 C          1.2026232996        3.7341916113        0.5417401905
 C          0.6048374043        2.4609287751        0.3271004897
 C          1.3521158979        1.2804990698        0.3595802041
 C          2.7882996471        1.3792376710        0.6942205788
 C          3.6952224137        2.0228595339       -0.1426313609
 C          5.0142773915        2.1767512736        0.2385344187
 C          5.4440803468        1.7050423486        1.4674611168
 C          4.5471348347        1.0731108083        2.3108092860
 C          3.2285516626        0.9123985473        1.9284421977
 C          0.7196264134        0.0282668317        0.1847356764
 C          1.4505970592       -1.1700527554        0.0122831957
 C          2.8886514301       -1.1520448604       -0.3199797760
 C          3.8505897295       -1.7126902912        0.5133330531
 C          5.1779309521       -1.7351029245        0.1394168392
 C          5.6007744485       -1.2206807776       -1.0840218682
 C          7.0747908922       -1.2792743815       -1.4513199572
 C          7.3664785161       -0.6634577054       -2.8222970460
 C          7.8836454854       -0.5068425940       -0.4004531339
 C          7.5247144516       -2.7470117485       -1.4799215610
 C          4.6315187068       -0.6802151988       -1.9190602292
 C          3.3005735962       -0.6457325258       -1.5454798513
 C          0.7999662077       -2.4041923227        0.0487166388
 C          1.4813605147       -3.6353714826       -0.1558346767
 C          0.8542020731       -4.8279360463        0.0004393082
 C         -0.5104141656       -4.9054344661        0.3889204257
 C         -1.1343434220       -6.2731318556        0.6066908349
 C         -0.3603081081       -7.0045086395        1.7124531712
 C         -1.0551197693       -7.0735252541       -0.7011186754
 C         -2.6043297808       -6.1892757988        1.0270617890
 C         -1.1983019830       -3.7387039799        0.5359892690
 C         -0.6019635671       -2.4647089345        0.3208622356
 C         -1.3519599000       -1.2856246189        0.3467976848
 C         -2.7919593325       -1.3919825683        0.6626557701
 C         -3.6849524752       -2.0321319157       -0.1912746293
 C         -5.0078955047       -2.1963989921        0.1722626116
 C         -5.4548952277       -1.7393716562        1.4004231271
 C         -4.5715942282       -1.1109927773        2.2608230050
 C         -3.2495480532       -0.9395164179        1.8960087334
 C         -0.7206248819       -0.0314402563        0.1808911887
 C         -3.8444514381        1.7157218111        0.5259576240
 C         -5.1738206704        1.7451843969        0.1593477360
 H         -7.0912150424       -0.3211743967       -2.8666164007
 H         -6.8538361895        1.2818272192       -3.5847580802
 H         -8.4450042080        0.7944736993       -3.0111283488
 H         -7.7300672074        0.8816381126        0.6144536455
 H         -7.5529326779       -0.5446599820       -0.4025492974
 H         -8.9391096294        0.5307327307       -0.6206574500
 H         -8.5943069130        2.8317619138       -1.6821465821
 H         -6.9636621840        3.3537022896       -2.1147786953
 H         -7.4248472437        3.2089210096       -0.4201330281
 H         -4.9144957373        0.3116876164       -2.8757206316
 H         -2.5785811011        0.2441141306       -2.2218314534
 H         -2.5149291359        3.6087962187       -0.4471012596
 H         -1.4007207117        5.7353633844       -0.1782259146
 H         -0.6731465901        7.1433111677        1.4280480046
 H          0.4096912712        6.4421730132        2.6287609000
 H          0.8076571595        7.9882411260        1.8730007719
 H          0.0440712372        7.2111024938       -1.0322287611
 H          1.6021739490        6.5345785492       -1.5013229083
 H          1.5310600677        8.0418746566       -0.5834348512
 H          2.7200936239        5.6415714643        1.9608760611
 H          3.2144985888        5.6918819435        0.2621112858
 H          3.0087486765        7.1874403335        1.1684698853
 H          2.2395450069        3.7426173696        0.8306705333
 H          3.3591479904        2.3946000511       -1.1001407087
 H          5.7084591931        2.6756680724       -0.4229894161
 H          6.4730868284        1.8342414920        1.7695351158
 H          4.8753869719        0.7091025752        3.2736881233
 H          2.5250369225        0.4271988094        2.5902048412
 H          3.5526547020       -2.1209089719        1.4687876432
 H          5.8947813114       -2.1692208919        0.8204787011
 H          7.0790354876        0.3850957040       -2.8477863172
 H          6.8411811495       -1.1967425025       -3.6112968822
 H          8.4333508167       -0.7252002619       -3.0284928291
 H          7.7581495641       -0.9352272863        0.5898993796
 H          8.9425083893       -0.5285518290       -0.6508711005
 H          7.5549345626        0.5291827902       -0.3659889305
 H          7.4052409650       -3.2162544152       -0.5072747003
 H          8.5730330692       -2.8134080651       -1.7638546730
 H          6.9348887452       -3.3067781718       -2.2031050584
 H          4.8984194271       -0.2766166000       -2.8823129001
 H          2.5653881998       -0.2240017131       -2.2166601374
 H          2.5232195550       -3.6088308193       -0.4376895309
 H          1.4128712641       -5.7371187105       -0.1635592113
 H         -0.3975220960       -6.4320452055        2.6370583217
 H         -0.8004827227       -7.9828699832        1.8940440320
 H          0.6822502078       -7.1459116446        1.4411533098
 H         -1.5837177091       -6.5486935432       -1.4942486902
 H         -0.0258966989       -7.2200033060       -1.0168412162
 H         -1.5126822962       -8.0519373456       -0.5696349102
 H         -3.2034384618       -5.6977743556        0.2639017744
 H         -2.7133745856       -5.6474797838        1.9638530048
 H         -2.9985038326       -7.1934387726        1.1700573122
 H         -2.2366004892       -3.7483600932        0.8200115884
 H         -3.3353014653       -2.3942249565       -1.1476454662
 H         -5.6913130518       -2.6922569652       -0.5026411920
 H         -6.4866828748       -1.8768721649        1.6890406256
 H         -4.9138727207       -0.7574522361        3.2227852562
 H         -2.5565410579       -0.4557723647        2.5698875952
 H         -3.5403684266        2.1157006255        1.4828823118
 H         -5.8856907955        2.1744198563        0.8485213227
