  52
        -84.96307387
 O          7.7909111758        0.8762132438        0.0747428889
 C          6.6823304366        0.4030045643        0.0259580546
 C          6.3510520361       -1.0989366609       -0.2572488949
 O          7.1693059803       -1.9654024430       -0.4553735191
 C          4.8880081503       -1.1927525870       -0.2214080020
 C          4.0077884528       -2.2402376335       -0.3723274794
 C          2.6362459947       -1.9776572880       -0.2858824220
 C          2.1117840555       -0.7136895934       -0.0576182754
 C          0.6604481705       -0.5226945449       -0.0409071903
 C          0.0603276285        0.5021918735       -0.7750027781
 C         -1.3070178764        0.6650468562       -0.7793922344
 C         -2.1285408346       -0.1848455738       -0.0325368028
 N         -3.5065591593       -0.0149767561       -0.0244121234
 C         -4.3582651687       -1.1238890359        0.1055697866
 C         -5.5065029063       -1.0384114339        0.8906127405
 C         -6.3486591236       -2.1272927355        1.0092929041
 C         -6.0570685874       -3.3135275369        0.3559741258
 C         -4.9165302940       -3.4026149156       -0.4251776132
 C         -4.0723455941       -2.3167591614       -0.5562517023
 C         -4.0686777562        1.2652352068       -0.1450261144
 C         -5.2256365994        1.4551770189       -0.8987844668
 C         -5.7860036018        2.7134232705       -1.0059569134
 C         -5.2010710673        3.7978253504       -0.3727840117
 C         -4.0504494658        3.6138917709        0.3762835719
 C         -3.4873354671        2.3579684561        0.4961674682
 C         -1.5300600910       -1.2137434564        0.7015388112
 C         -0.1639628157       -1.3836083353        0.6851798981
 C          3.0041200014        0.3808623321        0.1440752592
 C          2.6782581276        1.7135389860        0.4845602699
 C          3.6623227804        2.6595802553        0.6527122570
 C          5.0275810289        2.3619501987        0.5074509018
 C          5.3812550329        1.0681259057        0.2104142129
 C          4.3717089360        0.0954308146        0.0425976133
 H          4.3622840624       -3.2412078808       -0.5651908529
 H          1.9463342545       -2.7963365604       -0.4340579055
 H          0.6733864230        1.1472730731       -1.3875763291
 H         -1.7546094382        1.4474357931       -1.3744040944
 H         -5.7298920031       -0.1155014551        1.4058977333
 H         -7.2340035730       -2.0505986328        1.6227452534
 H         -6.7153092243       -4.1630840178        0.4538037873
 H         -4.6861338484       -4.3211379822       -0.9441961162
 H         -3.1894475240       -2.3825857508       -1.1757067348
 H         -5.6779810875        0.6110635333       -1.3987052958
 H         -6.6814697181        2.8483742366       -1.5940894982
 H         -5.6400633745        4.7797097154       -0.4609385407
 H         -3.5924622723        4.4524893197        0.8795405096
 H         -2.5983315954        2.2129305447        1.0929517299
 H         -2.1487797595       -1.8730942731        1.2920886104
 H          0.2809908508       -2.1720806267        1.2743671596
 H          1.6438314446        1.9863920202        0.6324858421
 H          3.3801219754        3.6690002279        0.9137097750
 H          5.7756963970        3.1279451544        0.6421680400
