  52
        -84.90832468
 O          7.8005389552        0.8339733072        0.0633474119
 C          6.6654059159        0.3623024008        0.0195085956
 C          6.3363688159       -1.0896795713       -0.1936817382
 O          7.1666786595       -1.9881790415       -0.3438636440
 C          4.8768922568       -1.1853851943       -0.1768325599
 C          4.0044889896       -2.2419173805       -0.2967777717
 C          2.6300897794       -1.9691858202       -0.2263711912
 C          2.1001831458       -0.7013692176       -0.0512799926
 C          0.6473409591       -0.5153237776       -0.0407398113
 C          0.0425745185        0.4828187452       -0.8079164840
 C         -1.3250745652        0.6475115749       -0.8069846423
 C         -2.1380986991       -0.1814442020       -0.0292004203
 N         -3.5216474844       -0.0136605505       -0.0198842956
 C         -4.3613899293       -1.1301974927        0.0801314422
 C         -5.5327464572       -1.0670230255        0.8355587411
 C         -6.3570525121       -2.1713269809        0.9289206740
 C         -6.0274484032       -3.3499213549        0.2784317904
 C         -4.8646926787       -3.4171790851       -0.4728367589
 C         -4.0356368675       -2.3176186378       -0.5766822078
 C         -4.0757088355        1.2688126587       -0.1093234525
 C         -5.2481247514        1.4816064602       -0.8355122222
 C         -5.7933908858        2.7479749345       -0.9159105370
 C         -5.1806877335        3.8172801334       -0.2819043646
 C         -4.0153495242        3.6109871012        0.4393901661
 C         -3.4642941759        2.3480086480        0.5305232084
 C         -1.5384701329       -1.1867527029        0.7347347292
 C         -0.1714693733       -1.3518522435        0.7205164578
 C          2.9909824003        0.4052010415        0.1041969395
 C          2.6821896557        1.7595425221        0.3815096059
 C          3.6838161615        2.6898699101        0.5157901131
 C          5.0508763597        2.3694912317        0.4028001392
 C          5.3784712264        1.0589312372        0.1613437113
 C          4.3484683706        0.1071979720        0.0250152804
 H          4.3528795061       -3.2519088041       -0.4457587662
 H          1.9454867205       -2.7975398687       -0.3454796529
 H          0.6527272998        1.1075335640       -1.4433517684
 H         -1.7790668343        1.4092964322       -1.4239344036
 H         -5.7821093890       -0.1527427425        1.3544117548
 H         -7.2580036464       -2.1134471409        1.5207901079
 H         -6.6726637661       -4.2111647440        0.3568645607
 H         -4.6049486621       -4.3290936458       -0.9889875555
 H         -3.1373913317       -2.3644656524       -1.1751214321
 H         -5.7178876815        0.6507357615       -1.3416375805
 H         -6.6981078957        2.9018696613       -1.4843983988
 H         -5.6088991902        4.8053735593       -0.3489255140
 H         -3.5367217577        4.4374181367        0.9429322011
 H         -2.5654612521        2.1837771768        1.1073803484
 H         -2.1551464349       -1.8249852633        1.3505714090
 H          0.2787437154       -2.1175015173        1.3346599260
 H          1.6524178007        2.0594218888        0.5073817973
 H          3.4210905612        3.7166801876        0.7255947481
 H          5.8043099380        3.1328671283        0.5172739582
