52
 energy: -85.000491373324 gnorm: 0.000034498609 xtb: 6.7.1 (edcfbbe)
O            8.56128640622057       -0.63107688007531       -0.02441998986892
C            7.43408398684361       -0.18866956966312       -0.04925501546761
C            7.06684199872330        1.31570282244192       -0.25532879303764
O            7.87527790886783        2.20858696321430       -0.40802020424673
C            5.60989804811809        1.37551190670650       -0.21597807768937
C            4.70260823273977        2.40957292833657       -0.31158695678184
C            3.33953748857906        2.11071232767752       -0.23428295615586
C            2.84296570674272        0.82340275873341       -0.07009442344211
C            1.39687672167450        0.60516051845658       -0.05081076215295
C            0.56457933849368        1.42731090079174        0.71276355964414
C           -0.79827569717661        1.23444600650535        0.73644501765615
C           -1.38819210835015        0.22254501400423       -0.02860919021777
N           -2.76334971718478        0.02975223807529       -0.01429710924610
C           -3.30419166557590       -1.25573981004646       -0.17670359075718
C           -2.70847823539406       -2.35789857134016        0.43537110017555
C           -3.25070885551128       -3.61886240977602        0.27492130793087
C           -4.39370991514685       -3.79917274405445       -0.48743354442792
C           -4.99243700818971       -2.70573227661404       -1.09244904540392
C           -4.45318911252004       -1.44199074038798       -0.94402200997110
C           -3.63426165107831        1.11722844909314        0.16022125597769
C           -3.37666649475519        2.33851325420921       -0.46141145787109
C           -4.24138707710205        3.40241016038379       -0.28772018969778
C           -5.37459116366238        3.26434472324283        0.49777791900036
C           -5.63798017196867        2.05031880602870        1.11170821741065
C           -4.77539980090181        0.98283506633712        0.94975277340789
C           -0.55994569005821       -0.58733345801151       -0.81266288703564
C            0.80478984496971       -0.40354572848651       -0.81520236374794
C            3.76257752404584       -0.26029853269537        0.06940988017180
C            3.47027427454458       -1.61692748747864        0.34112894553308
C            4.47704891832854       -2.54774151913179        0.45905514066459
C            5.83449897530754       -2.21103921890751        0.33064260762875
C            6.15607547395273       -0.89392085313368        0.09932118425459
C            5.12236210252023        0.06233600249704       -0.01816705787154
H            5.03445064020100        3.42682691868194       -0.45428682963803
H            2.63201676163066        2.92050464900483       -0.33679500560576
H            1.00183510789692        2.20041386829562        1.32692959295443
H           -1.42081565401609        1.86233207337603        1.35628266271131
H           -1.82501969189155       -2.21714753363694        1.04091929050877
H           -2.78252322201342       -4.46517783861337        0.75613073148804
H           -4.81632238818497       -4.78531907570379       -0.60807927152082
H           -5.88184481188927       -2.83805080970980       -1.69109841461990
H           -4.91714556900142       -0.59122383754691       -1.42158007559270
H           -2.50011002146144        2.44435979028188       -1.08392553806193
H           -4.03324019387469        4.34302741528941       -0.77653107590137
H           -6.04955826060440        4.09670721549529        0.62904487816332
H           -6.51763729531039        1.93528394881641        1.72807131694631
H           -4.97871719189603        0.03890463141302        1.43425719862977
H           -1.00099998013881       -1.35522761072441       -1.43069914473308
H            1.41999164238714       -1.01562755619951       -1.45763102739690
H            2.44406408748111       -1.92238393163997        0.47489981172873
H            4.22021280937895       -3.57567699467301        0.66754304126272
H            6.60254464518830       -2.96326936914695        0.42648357432240
