52
 energy: -84.950923663622 gnorm: 0.000111143591 xtb: 6.7.1 (edcfbbe)
O            7.80909589211472        0.83770364195090        0.05659082295169
C            6.66590074699588        0.35546567282596        0.01386819628814
C            6.33910567581848       -1.08143087485010       -0.19464370835216
O            7.16900593395429       -1.99488086677964       -0.34801233160985
C            4.87921459959923       -1.18530713163639       -0.17597270019056
C            4.00323048098324       -2.23959624657344       -0.29414391765162
C            2.62908558831278       -1.96646652717190       -0.22050262668106
C            2.10092458732134       -0.69690728160026       -0.04579297704972
C            0.64794836121311       -0.51274161802426       -0.03658111159763
C            0.04215536808063        0.48852486056316       -0.80133473761777
C           -1.32521991108433        0.65130896594943       -0.80089417500550
C           -2.13892422320653       -0.18463266516563       -0.02780601583092
N           -3.52020025706060       -0.01755832157820       -0.01844040724119
C           -4.36103090270910       -1.13104839110011        0.08170143029303
C           -5.53697586564198       -1.06175119212336        0.83233578163648
C           -6.36589015876171       -2.16262763201913        0.92304292943636
C           -6.03806823043435       -3.34333856091233        0.27350328474142
C           -4.87112647520339       -3.41686132737904       -0.47233956866587
C           -4.03537808273339       -2.32199376853445       -0.57197243060867
C           -4.07373934760502        1.26343939832350       -0.10979425222208
C           -5.24939572881471        1.47412271090482       -0.83429687550713
C           -5.79572692254121        2.73996828933338       -0.91433260208257
C           -5.18280636424254        3.81046347647349       -0.28038943410095
C           -4.01446131741806        3.60640846976298        0.43848195623298
C           -3.46048108503782        2.34463066282422        0.52814256446678
C           -1.53807801487875       -1.19500063962992        0.73190710018147
C           -0.17089302532977       -1.35625832917855        0.71959495637087
C            2.99408735545033        0.40896587947014        0.10620861348289
C            2.68660463784977        1.76375743792860        0.38221524036620
C            3.68916830124174        2.69425186868852        0.51340714107332
C            5.05559034083491        2.37187332693128        0.39951986558044
C            5.38466869666838        1.06076579068089        0.15856716123422
C            4.35221405819748        0.10883871590613        0.02610293177071
H            4.35315967626175       -3.24965822793672       -0.44393209994838
H            1.94539744600839       -2.79513018827424       -0.33788360363938
H            0.65274733412697        1.11587551866345       -1.43244665480371
H           -1.77893476516283        1.41261741599390       -1.41756982219806
H           -5.78407437399084       -0.14812617119936        1.35202667332917
H           -7.26901319005745       -2.10213463590965        1.51158292525274
H           -6.68852164841003       -4.20134517796154        0.34756932787733
H           -4.61502095577044       -4.33049476648811       -0.98747732625955
H           -3.13640392325360       -2.37385443551702       -1.16789887610594
H           -5.71794945254693        0.64440033222373       -1.34222751397935
H           -6.70101559800908        2.89408444922160       -1.48208455354097
H           -5.61313226263675        4.79798906644841       -0.34642377223600
H           -3.53700127353491        4.43415040378235        0.94110810005389
H           -2.56244748935629        2.18289534288930        1.10543301494510
H           -2.15264932398077       -1.83547167984766        1.34649923953135
H            0.28094381623332       -2.12297133159502        1.33029825233319
H            1.65842217958581        2.06558606801136        0.50855287523406
H            3.42893599185915        3.72192161649420        0.72192746308290
H            5.81230417205100        3.13340003941196        0.51141797206585
