  70
       -108.13669066
 C          9.5409054011       -2.7855451171        1.7780278536
 C          8.4564609550       -3.5180622410        1.3240755129
 C          7.2887933751       -2.8770784824        0.9563774204
 C          7.1868828106       -1.4884329223        1.0290680212
 C          5.9486316452       -0.8057378388        0.6346696937
 C          4.7036054129       -1.3471941132        0.9905751214
 C          3.5150733011       -0.7420118466        0.6426738444
 C          3.5731679905        0.4324222195       -0.0995310030
 C          4.8205765565        1.0067889158       -0.4505145070
 C          6.0010729703        0.3871145825       -0.0827819356
 C          4.5202986629        2.2194665936       -1.1631251578
 C          5.3015174781        3.1964946654       -1.7606481617
 C          4.6707409131        4.2489507177       -2.3995177821
 C          3.2812390654        4.3239977243       -2.4589453129
 C          2.4813639846        3.3627079829       -1.8697002349
 C          3.1085565384        2.3177969052       -1.2047069769
 N          2.5542728349        1.2327654557       -0.5573886870
 C          1.1851539783        0.9879360956       -0.3997582079
 C          0.6396968324       -0.2569699055       -0.7392001467
 C         -0.7011322029       -0.4862465938       -0.5918233616
 C         -1.5744431253        0.5119711620       -0.0973938464
 C         -2.9650117860        0.2163431607        0.0242423022
 C         -3.9248852127        1.0916728362        0.5683170608
 C         -5.2420985559        0.6756660336        0.6256125809
 C         -6.3292080864        1.4871713841        1.1396381932
 C         -6.1267234129        2.6865247895        1.8333810291
 C         -7.1989436808        3.4185302969        2.2993060874
 C         -8.4982516166        2.9805008801        2.0902602323
 C         -8.7141916565        1.7910739586        1.4099169745
 C         -7.6487761744        1.0536070715        0.9424032869
 N         -5.5690434139       -0.5598301483        0.1525581678
 C         -4.6448490566       -1.3690901683       -0.3322156181
 C         -5.0396778068       -2.6943583413       -0.8078976770
 C         -6.3574647364       -3.1237259176       -0.6712157974
 C         -6.7301383349       -4.3755965774       -1.1206971956
 C         -5.7932821881       -5.2097075362       -1.7104159261
 C         -4.4799676690       -4.7879645500       -1.8496788589
 C         -4.1029588074       -3.5373807657       -1.4011154031
 N         -3.3897983102       -1.0075740716       -0.4030300267
 C         -1.0033742282        1.7564446884        0.2471131417
 C          0.3398875769        1.9871857771        0.0955809462
 C          8.2866264086       -0.7619042179        1.4836997031
 C          9.4507121489       -1.4056932382        1.8578706949
 H         10.4517683025       -3.2877136959        2.0684752370
 H          8.5229191796       -4.5941521239        1.2544973137
 H          6.4533426343       -3.4530776466        0.5858034485
 H          4.6803266787       -2.2509464949        1.5809007186
 H          2.5688129997       -1.1593824009        0.9509520394
 H          6.9517467470        0.8125141829       -0.3664885942
 H          6.3786603825        3.1312471382       -1.7317664470
 H          5.2614430468        5.0206747276       -2.8698944723
 H          2.8185281663        5.1483658415       -2.9806439929
 H          1.4056541418        3.4162486107       -1.9359591930
 H          1.2847932583       -1.0213715139       -1.1478210992
 H         -1.1286498232       -1.4390049055       -0.8634180428
 H         -3.6355529379        2.0661517162        0.9212868242
 H         -5.1270734883        3.0459022582        2.0242534421
 H         -7.0225092597        4.3407779167        2.8345808519
 H         -9.3327354167        3.5585875857        2.4581594350
 H         -9.7229041457        1.4404893573        1.2441479033
 H         -7.8101164155        0.1298060829        0.4080543563
 H         -7.0735296145       -2.4629394891       -0.2068812496
 H         -7.7530517266       -4.7058810428       -1.0112014853
 H         -6.0862088741       -6.1882880970       -2.0616898886
 H         -3.7507452335       -5.4387185754       -2.3097571150
 H         -3.0853166985       -3.1933818898       -1.5047343705
 H         -1.6221552158        2.5480805383        0.6390510584
 H          0.7635503979        2.9383433844        0.3844295578
 H          8.2166611640        0.3129612580        1.5669832589
 H         10.2916137935       -0.8294302760        2.2157946605
