53
 energy: -85.807628771472 gnorm: 0.000070785334 xtb: 6.7.1 (edcfbbe)
C           -7.53957290925529       -2.52648387986687        0.25645676297888
O           -6.20949728201687       -2.98051503588610        0.33700966890116
C           -5.20123890743208       -2.08122050928550        0.24636278728474
C           -3.90649082033733       -2.62796952187948        0.34782146573738
C           -2.78095398678052       -1.84434887925708        0.26337895099450
C           -2.94776040644365       -0.47558844510475        0.06116457666411
C           -4.24627670004191        0.09036437032929       -0.00135081845868
C           -5.37475412646159       -0.70916631157471        0.08344718012928
C           -4.06427741044047        1.50997692301341       -0.13927279907156
C           -4.93911305470498        2.57777949703072       -0.26394268569397
C           -4.41389215631592        3.84951464522781       -0.41954120418562
C           -3.03826947472613        4.05659175839508       -0.47260252728983
C           -2.14527444124879        3.00576813905430       -0.35026132886761
C           -2.66504227831165        1.73393569529431       -0.15735829624548
N           -2.00642124772546        0.52252065836889       -0.03209539920568
C           -0.63072941060081        0.34743117498619       -0.01847867429017
C           -0.02773276767977       -0.67809441873503       -0.77501472826400
C            1.32468141892859       -0.84723650443113       -0.76701295444772
C            2.18041239934841       -0.00782151744402        0.00416539646540
C            3.58683125563738       -0.18209684488502        0.01155261612938
C            4.50419595196327        0.91138712223383        0.22139759346971
C            4.09089778313865        2.24752203262838        0.30791395293235
N            3.82928092732040        3.36888397020589        0.35091340700493
C            5.87740214229993        0.68656927556624        0.21344019644375
C            6.85846984221065        1.79977617350781        0.39950495631646
N            6.38296384890564       -0.52784687369587        0.02543799984143
C            5.59857650792006       -1.58285085199090       -0.16814438434654
C            6.28067065310093       -2.90163996509573       -0.34677608970558
C            4.21212270863188       -1.46644393001438       -0.19021862992990
C            3.48684368472093       -2.66182743593676       -0.28334596702521
N            2.96079482540061       -3.68593244070199       -0.33055793868358
C            1.54777210941597        1.01720388116438        0.76618689139040
C            0.19583899027020        1.19038113011145        0.75204584890390
H           -8.16026859923712       -3.41645080281074        0.34469401480793
H           -7.77785656609453       -1.83704538630929        1.07244859675846
H           -7.73940490854643       -2.03950321631019       -0.70312674110741
H           -3.82726652109957       -3.69159988792036        0.50258183741366
H           -1.80031737923620       -2.28018243561371        0.36853670304389
H           -6.35331695628789       -0.26054084057090        0.02957945555566
H           -6.00656874447123        2.41892915297613       -0.24651787846415
H           -5.07950255998123        4.69386263164648       -0.51566446879377
H           -2.65834879187933        5.05599510902434       -0.61878155374558
H           -1.08215163627109        3.17390381781982       -0.41986499845157
H           -0.64576616841516       -1.28611105812494       -1.41895884961327
H            1.76169506918171       -1.59436693942503       -1.40950142477934
H            7.86828218473673        1.39987580104517        0.37373804594767
H            6.74354964471191        2.54274176867797       -0.38894612929447
H            6.69097146368901        2.30178234022747        1.35147510308973
H            7.35700218812553       -2.76116367463964       -0.30112997744483
H            5.97290473497442       -3.59728857771375        0.43303646072817
H            6.01297735835858       -3.34318066269818       -1.30584355604757
H            2.14655852461318        1.63210494845146        1.41841420904326
H           -0.26118796455522        1.93336505909822        1.38867415432377
