53
 energy: -85.892924373139 gnorm: 0.000095914704 xtb: 6.7.1 (edcfbbe)
C           -7.38963877022865       -2.58393318191231        0.01864116283618
O           -6.06492411928123       -3.05162358456675        0.04482491889171
C           -5.05334833570816       -2.13290897694501        0.03619348853823
C           -3.76001788935315       -2.67755202687062        0.06880477276275
C           -2.63534246659525       -1.88269963941349        0.05531762501662
C           -2.81037254309917       -0.50655786988158       -0.00344313140664
C           -4.10397235527369        0.05246305399867       -0.00370391058164
C           -5.23288147644679       -0.75971633117094        0.01075878940261
C           -3.93536556008731        1.47874251186301       -0.00442206025553
C           -4.82610133119360        2.54398336260988       -0.02706110164131
C           -4.32159428575413        3.82855217078175       -0.05180151456948
C           -2.94763109809299        4.05675577286319       -0.07378606337907
C           -2.04151571923785        3.01362884241965       -0.05188105505366
C           -2.54229796535154        1.72067957934572        0.00452960655871
N           -1.87004786525529        0.51242470023624        0.00458519891295
C           -0.48703025808992        0.34504873222935        0.00429554647013
C            0.11424532933273       -0.55150609617743       -0.87872319889861
C            1.48161113263696       -0.72269741921815       -0.87208348933350
C            2.28372014469554        0.01070632804515        0.00128343946363
C            3.73771197398583       -0.16423713716796       -0.00020692288202
C            4.60697207194972        0.93636915851661       -0.01557693365613
C            4.11793406745981        2.25817077346291       -0.08475269106003
N            3.76928735242072        3.34844188038070       -0.16163256809612
C            5.99694161552034        0.72018335331180       -0.01521892427251
C            6.95504146105784        1.86273496126706       -0.03560938152287
N            6.51013818639414       -0.49748702907069       -0.00123305974687
C            5.72295687112905       -1.55885084486609        0.01303641003998
C            6.38286436776372       -2.89594161140021        0.03358515210444
C            4.32135130065265       -1.43946426369341        0.01426725150650
C            3.53311532013156       -2.60786878841585        0.08350034470148
N            2.93620188890368       -3.58452785035740        0.15994054211478
C            1.68092870119752        0.91297389210295        0.87676086003580
C            0.31203326904147        1.07167577943505        0.88664969904948
H           -7.59381823927411       -2.00234778282729       -0.88673418996172
H           -8.01740258812807       -3.47370119483067        0.02290852652378
H           -7.61992128191185       -1.97580561743545        0.89999740273287
H           -3.67191239914394       -3.75132168950289        0.11011284091851
H           -1.65319360721814       -2.32667750290084        0.10420098055283
H           -6.21156459354150       -0.30808457752362        0.00887508071610
H           -5.89096462290740        2.36619809197115       -0.03111013614829
H           -4.99713141643707        4.67079427275505       -0.06651928176065
H           -2.58101465609880        5.07168738997954       -0.11354540901827
H           -0.98003986428850        3.20500210375985       -0.09310931848878
H           -0.49538983591483       -1.09609856724513       -1.58283874625990
H            1.93588693079712       -1.40463155047778       -1.57567677326635
H            6.80209227115484        2.50210477586483        0.83307451159422
H            7.97207482225543        1.48190819968616       -0.03252209818679
H            6.79644822438792        2.47375623962010       -0.92353091711461
H            7.46118244991336       -2.76722303247296        0.02566094518646
H            6.08780648472520       -3.44954763880473        0.92432504174911
H            6.07870922366146       -3.48312940427819       -0.83212447700407
H            2.28589342015348        1.46672539544569        1.57952229263580
H           -0.14871873740823        1.74443088750334        1.59319592257274
