53
 energy: -85.807629035418 gnorm: 0.000036826178 xtb: 6.7.1 (edcfbbe)
C           -7.53561063235082       -2.52822060161115        0.17853547031606
O           -6.20560191783614       -2.98471459928090        0.24504006902305
C           -5.19722686044267       -2.08323658658878        0.18141900765052
C           -3.90255534087122       -2.63293236581187        0.26655295544958
C           -2.77694095456411       -1.84721992126308        0.20611349607888
C           -2.94363656638349       -0.47294071733645        0.04552288447335
C           -4.24204671045739        0.09475128328445       -0.00040533451588
C           -5.37060178039135       -0.70688730238555        0.05975755829226
C           -4.05982428026580        1.51791663840202       -0.09473051456731
C           -4.93451296456170        2.58906833370100       -0.18746351993621
C           -4.40911046084941        3.86497261475944       -0.30324691812868
C           -3.03342714062009        4.07353374836652       -0.34818497454286
C           -2.14056372321744        3.01939997950886       -0.25741283457063
C           -2.66055937651487        1.74221519452744       -0.10469611189070
N           -2.00215725806898        0.52745083346238       -0.01649035608169
C           -0.62654734117954        0.35122634746523       -0.00831815665562
C           -0.02436798179068       -0.65015881218979       -0.79713832289112
C            1.32782603756301       -0.82103209717469       -0.79406586891501
C            2.18424721122826       -0.00839674208455        0.00463754820091
C            3.59025701339248       -0.18561397084523        0.00819852934825
C            4.50966214999249        0.89790838584800        0.25753229120939
C            4.09976239161609        2.23139066938346        0.38932592190289
N            3.84158041725456        3.35146602039224        0.47054932504918
C            5.88241727824978        0.67034417911950        0.24512500574803
C            6.86539707535188        1.77399065777994        0.47331020792751
N            6.38583850976481       -0.53779954418482        0.01568841279924
C            5.59958555551323       -1.58361703617813       -0.21632996123936
C            6.27923770865240       -2.89682607129232       -0.43981374313958
C            4.21340048634111       -1.46356103450002       -0.23672655354663
C            3.48653398750257       -2.65386680838960       -0.37274695369344
N            2.95973678985364       -3.67525415284004       -0.45656936802017
C            1.55233406919521        0.99269437472559        0.79852383800976
C            0.20066193811205        1.16827930863611        0.78889104887193
H           -8.15648497060826       -3.42023030541318        0.24119212051627
H           -7.77324927435556       -1.86276998213048        1.01438987403561
H           -7.73584948666482       -2.01346208654636       -0.76635732833984
H           -3.82344744795349       -3.70075254232742        0.38918847102749
H           -1.79633122534619       -2.28606929921390        0.29821951847244
H           -6.34911276682397       -0.25676754105300        0.01904443511067
H           -6.00198600655804        2.42977423382873       -0.17617188325764
H           -5.07461356934214        4.71189539040019       -0.37415343426980
H           -2.65334375463501        5.07698552125369       -0.46282268802373
H           -1.07735506639540        3.18959274822679       -0.32038695932954
H           -0.64286476961515       -1.23649490873213       -1.46046528590221
H            1.76415219097746       -1.54742489623006       -1.46033105087811
H            6.74998646172128        2.54816970280071       -0.28439647030727
H            6.70038556059900        2.23755957368073        1.44504488792648
H            7.87459818566382        1.37407521828476        0.42988886950583
H            7.35592269333104       -2.75919700922834       -0.39382445919831
H            5.97373478162489       -3.61649728886505        0.31883955407768
H            6.00706527525655       -3.30743677590347       -1.41125130746388
H            2.15135010065452        1.58563802525985        1.47053297719375
H           -0.25571710770772        1.89146001760719        1.44838034806083
