53
 energy: -85.892924873859 gnorm: 0.000063001765 xtb: 6.7.1 (edcfbbe)
C           -7.51979782245443       -2.52286773422815        0.02168204699130
O           -6.19876416045747       -3.00100931992456        0.04425888183133
C           -5.18005571369773       -2.09022846072997        0.03358402167163
C           -3.89100620369052       -2.64492390078522        0.06606636496089
C           -2.76019715801009       -1.85884292056488        0.05183283745957
C           -2.92458622601368       -0.48143347264005       -0.00766862262629
C           -4.21377973197945        0.08767481533933       -0.00906749001336
C           -5.34893797482376       -0.71571532310618        0.00636969339776
C           -4.03403764627368        1.51260301036597       -0.01120418751011
C           -4.91630345849516        2.58481963939117       -0.03607442985747
C           -4.40161976741909        3.86533709212132       -0.06170338153219
C           -3.02587223050510        4.08271208405143       -0.08213428875417
C           -2.12803653441851        3.03250170719467       -0.05806691510353
C           -2.63912932251111        1.74362694801050       -0.00115072363584
N           -1.97639050352110        0.53018348238324        0.00038464169957
C           -0.59473068114803        0.35197629956514        0.00268398089524
C            0.00109991535299       -0.54885464044602       -0.87962550840492
C            1.36706410125519       -0.73064048741278       -0.87045026975295
C            2.17316173669933       -0.00392156378577        0.00485309037244
C            3.62575075194410       -0.18994675362441        0.00461078635936
C            4.50354033410360        0.90386346188955       -0.00953169539135
C            4.02505654636493        2.22968908749806       -0.07564295789337
N            3.68556646128968        3.32301662556643       -0.14984587081664
C            5.89178173276247        0.67676698597441       -0.01091854410616
C            6.85870398267482        1.81185521861598       -0.03131452908070
N            6.39545605261566       -0.54489135604877        0.00109619876732
C            5.60001685292253       -1.60008726080149        0.01510483398884
C            6.24929289973230       -2.94239906841354        0.03263242211867
C            4.19940326954887       -1.46970814919555        0.01747424213084
C            3.40221563381328       -2.63205331760165        0.08607590050468
N            2.79848979181615       -3.60447076147147        0.16307578702683
C            1.57582849884326        0.90245520842205        0.87980728136954
C            0.20819231442278        1.07184358965962        0.88706307604425
H           -8.15459548344207       -3.40760182071902        0.02934113590869
H           -7.74228413659567       -1.91164325806458        0.90289915312198
H           -7.72236012993960       -1.94098699927479       -0.88386552520557
H           -3.81127047762269       -3.71931707155486        0.10814464300092
H           -1.78149225664754       -2.31035040291117        0.10085582854887
H           -6.32407848494372       -0.25649225209154        0.00394132173880
H           -5.98253012688575        2.41543805456680       -0.04121235932072
H           -5.07045934302837        4.71287295442662       -0.07820720733630
H           -2.65124512926797        5.09469511835863       -0.12233551596791
H           -1.06500336627438        3.21535365880283       -0.09803029829607
H           -0.61147999438401       -1.08824333075756       -1.58519289059083
H            1.81745757710621       -1.41555868584926       -1.57364693313249
H            6.70153104481858        2.42699257734863       -0.91663179348462
H            6.71398909457150        2.44956314768651        0.84000448041301
H            7.87274566296785        1.42314187276482       -0.03313344612996
H            7.32860006088417       -2.82217199266423        0.03666938336928
H            5.94012844017422       -3.50110139859188        0.91529454699964
H            5.95007034430477       -3.51989204462050       -0.84135024482259
H            2.18376524551989        1.45091126361445        1.58414751173036
H           -0.24883792910297        1.74780727620010        1.59297568385792
