  84
       -131.86010534
 C         -6.5807091688       -0.9646367019        0.3299960949
 C         -5.8195748892       -0.2590079665       -0.7969418360
 C         -6.1005317665       -0.9380121941       -2.1405315447
 C         -6.1581405371        1.2151124908       -0.8440475531
 C         -7.3743534930        1.8158217693       -1.0832913193
 C         -7.4480552916        3.2031528392       -1.0790486327
 C         -6.3211120301        3.9754176601       -0.8385260312
 C         -5.0942045269        3.3816297302       -0.5960983752
 C         -5.0173813638        1.9970690788       -0.5995153832
 C         -3.8916104071        1.1120294202       -0.3873551850
 C         -2.5638204066        1.3807793247       -0.0968981748
 C         -1.6664667975        0.3371451946        0.0567005903
 C         -2.1082382622       -0.9908632546       -0.0947800905
 C         -3.4608589510       -1.2597251621       -0.3625622387
 C         -4.3372292200       -0.2161652898       -0.5048099466
 N         -1.2081660881       -2.0347603848       -0.0088190085
 C         -1.7067396394       -3.3694103339       -0.0071309734
 C         -2.0909276907       -3.9428679358        1.1968962024
 C         -2.5811190600       -5.2372179806        1.2117461522
 C         -2.6880472585       -5.9543988682        0.0317928606
 C         -2.3041084163       -5.3786569461       -1.1685351942
 C         -1.8130271545       -4.0855322983       -1.1929122520
 C          0.1457198726       -1.8217894115       -0.0768437995
 C          1.0440682165       -2.8854157074       -0.2790815189
 C          2.3812293066       -2.6587428648       -0.4505886560
 C          2.9160687618       -1.3457571412       -0.4337801244
 C          4.3004804059       -1.0712635557       -0.6234517563
 C          5.1929568260       -2.0559183252       -1.1558842580
 C          6.5222130571       -1.8362410250       -1.3535818180
 C          7.1306798608       -0.5956683400       -1.0238824943
 C          8.4963699686       -0.3979914072       -1.2222295351
 N          9.6294941257       -0.2717631737       -1.3906063578
 C          6.3033285142        0.4163373555       -0.4980747050
 N          6.6936592989        1.6289941876       -0.1270374506
 S          5.4025287086        2.4506536992        0.4303973476
 N          4.2896792926        1.2535587374        0.2123666130
 C          4.8884143965        0.1900228190       -0.3054999728
 C          2.0013730283       -0.2988526461       -0.1802623705
 C          0.6636107670       -0.5138047036        0.0206986590
 C         -0.2424784993        0.6080257633        0.4832893930
 C          0.2067777874        1.9413811775       -0.0930166324
 C          0.3612369375        3.0813925651        0.6817515282
 C          0.7554095758        4.2751272577        0.1004792391
 C          0.9900080469        4.3461081051       -1.2605372651
 C          0.8159654326        3.2173903412       -2.0439939201
 C          0.4226084375        2.0263952760       -1.4647357752
 C         -0.1380435599        0.5779345568        2.0143607676
 C          1.1030503125        0.7695114373        2.6146020299
 C          1.2348887610        0.7284321852        3.9897892289
 C          0.1313130849        0.4858616297        4.7910029839
 C         -1.1042208575        0.2914525011        4.2022321082
 C         -1.2394838809        0.3366581947        2.8239878276
 H         -7.6510651873       -0.9258038558        0.1427860125
 H         -6.2759425336       -2.0067285337        0.3974444529
 H         -6.3774908958       -0.4793040629        1.2823455364
 H         -5.7913973535       -1.9804383617       -2.1095519277
 H         -7.1628578362       -0.8969060785       -2.3679494619
 H         -5.5554502928       -0.4356796173       -2.9368225323
 H         -8.2594328325        1.2263717213       -1.2734879489
 H         -8.3951510304        3.6867952778       -1.2675526328
 H         -6.4033360109        5.0523212646       -0.8419140420
 H         -4.2158482210        3.9814381392       -0.4105141808
 H         -2.2256884578        2.3979638710        0.0252532216
 H         -3.7955569340       -2.2806614972       -0.4643763748
 H         -2.0013161951       -3.3716947484        2.1090438878
 H         -2.8792409144       -5.6855336138        2.1472467154
 H         -3.0710558318       -6.9633299289        0.0467242624
 H         -2.3880775091       -5.9364356054       -2.0888847977
 H         -1.5135555461       -3.6240115884       -2.1223497441
 H          0.6699006152       -3.8981638434       -0.2957454761
 H          3.0321821443       -3.5094459195       -0.5716334945
 H          4.7858936679       -3.0099960949       -1.4505993242
 H          7.1480186354       -2.6105122249       -1.7722452208
 H          2.3899638337        0.7053609068       -0.1509578592
 H          0.1745892410        3.0439954788        1.7446697165
 H          0.8801035703        5.1523687957        0.7181003177
 H          1.3048736984        5.2758952517       -1.7101697986
 H          0.9899854751        3.2644635208       -3.1088736036
 H          0.2873510763        1.1476079821       -2.0796948388
 H          1.9736971080        0.9577715438        2.0057667380
 H          2.2052944913        0.8861546651        4.4361491398
 H          0.2344345446        0.4513007128        5.8653382129
 H         -1.9745206181        0.1057840899        4.8151233295
 H         -2.2182896580        0.1925645522        2.3902507398
  84
       -131.85997614
 C         -6.5467818349       -0.9399999195        0.0292873129
 C         -5.6892979307       -0.2215269562       -1.0170270481
 C         -5.8618766926       -0.8750172735       -2.3915422712
 C         -6.0102294956        1.2560838632       -1.0704774068
 C         -7.1998383695        1.8709966491       -1.3930341736
 C         -7.2612531696        3.2588212470       -1.3792010181
 C         -6.1481002578        4.0173135011       -1.0479941945
 C         -4.9479555872        3.4090816779       -0.7213950079
 C         -4.8836839049        2.0239428549       -0.7329804076
 C         -3.7862424819        1.1251771070       -0.4419074250
 C         -2.4826298617        1.3776133221       -0.0440906088
 C         -1.6159610885        0.3207433833        0.1762906359
 C         -2.0598337449       -1.0005333428       -0.0156166389
 C         -3.3869367098       -1.2529912126       -0.3968748747
 C         -4.2358051138       -0.1970146227       -0.6035357052
 N         -1.1766290708       -2.0546293494        0.1306449523
 C         -1.7022421387       -3.3748738454        0.1938041461
 C         -2.2428963745       -3.8171857931        1.3940177538
 C         -2.7716989552       -5.0929797414        1.4776049791
 C         -2.7621889053       -5.9238841610        0.3693572293
 C         -2.2244309971       -5.4791146947       -0.8273251887
 C         -1.6949225595       -4.2041678572       -0.9209086287
 C          0.1795011834       -1.8488674594        0.0946624407
 C          1.0876712964       -2.9038002673       -0.1055192806
 C          2.4233602710       -2.6641854132       -0.2738525908
 C          2.9484564070       -1.3455531410       -0.2617584268
 C          4.3118537483       -1.0428752012       -0.5367766805
 C          5.2987714705       -2.0708300241       -0.6834475550
 C          6.6084084387       -1.8241104487       -0.9621776404
 C          7.0973157775       -0.5034689445       -1.1469194553
 C          8.4379866888       -0.2770915789       -1.4550341946
 N          9.5518273226       -0.1257569439       -1.7092735124
 C          6.1774872706        0.5546547711       -1.0103764063
 N          6.4492243304        1.8459599705       -1.1495265307
 S          5.0823941456        2.7001916458       -0.9140930472
 N          4.0898830953        1.4180812461       -0.6265724306
 C          4.7890743689        0.2948111253       -0.6996882292
 C          2.0305280771       -0.3149911851        0.0508158938
 C          0.6938639081       -0.5422521496        0.2352809814
 C         -0.2314992610        0.5484322626        0.7358141258
 C          0.2855967508        1.9165286178        0.3219500034
 C          0.5064798810        2.9442800724        1.2256681877
 C          1.0053944377        4.1618182980        0.7917430040
 C          1.2826064136        4.3669916957       -0.5471027016
 C          1.0407639373        3.3528653829       -1.4589681461
 C          0.5413370729        2.1399023210       -1.0279348054
 C         -0.2649146400        0.3818153244        2.2604920948
 C          0.9336812559        0.3214818778        2.9647291224
 C          0.9405332977        0.1533596687        4.3365958118
 C         -0.2520233656        0.0363911451        5.0310745960
 C         -1.4479668122        0.1006858571        4.3402713476
 C         -1.4560011879        0.2731369939        2.9656547224
 H         -7.5970127824       -0.8930699848       -0.2477860650
 H         -6.2529928869       -1.9844924060        0.1061957909
 H         -6.4238972676       -0.4707618488        1.0031246271
 H         -5.5635322322       -1.9202791877       -2.3535411037
 H         -6.9011106072       -0.8209673247       -2.7062835949
 H         -5.2484735344       -0.3637020299       -3.1302754154
 H         -8.0736461098        1.2918705839       -1.6538744718
 H         -8.1876862007        3.7535867390       -1.6309060104
 H         -6.2200340483        5.0949559956       -1.0458591905
 H         -4.0806091771        3.9987403848       -0.4650008313
 H         -2.1418245223        2.3894584573        0.1119724339
 H         -3.7218983273       -2.2694405827       -0.5368211071
 H         -2.2423334182       -3.1578479722        2.2495635293
 H         -3.1901920062       -5.4383711809        2.4104223875
 H         -3.1756247187       -6.9185099444        0.4373001128
 H         -2.2205016484       -6.1243777849       -1.6927019049
 H         -1.2824970530       -3.8436025632       -1.8516570391
 H          0.7215653554       -3.9186789812       -0.1444242063
 H          3.0692458307       -3.5085655271       -0.4500291094
 H          4.9983264747       -3.0965914081       -0.5445674881
 H          7.3107880372       -2.6398052251       -1.0512386446
 H          2.4164626444        0.6876583540        0.1341828012
 H          0.2954158111        2.7998501160        2.2749807485
 H          1.1818543308        4.9502194048        1.5087368241
 H          1.6839557804        5.3122858690       -0.8802673522
 H          1.2480752744        3.5058765502       -2.5074354080
 H          0.3584431692        1.3483796386       -1.7407542201
 H          1.8698758931        0.4120725956        2.4350736613
 H          1.8816474737        0.1120490934        4.8645844528
 H         -0.2478716703       -0.1005893916        6.1021260556
 H         -2.3858993364        0.0183502510        4.8703665073
 H         -2.4039327947        0.3310871512        2.4511563703
  84
       -131.85991251
 C         -6.5700930221       -0.9272595679        0.2552240976
 C         -5.7774533583       -0.2344368343       -0.8577023058
 C         -6.0339622643       -0.9183477000       -2.2037655770
 C         -6.1014229958        1.2421647325       -0.9216073274
 C         -7.3076777712        1.8517285979       -1.1872720350
 C         -7.3695891734        3.2396068952       -1.1919575709
 C         -6.2406815031        4.0034392525       -0.9343925268
 C         -5.0235519410        3.4007144829       -0.6659823000
 C         -4.9584660704        2.0155661007       -0.6601801802
 C         -3.8457161445        1.1218529668       -0.4169269577
 C         -2.5245552201        1.3801169628       -0.0866295952
 C         -1.6451503677        0.3279522258        0.1040725683
 C         -2.0936654165       -0.9970551181       -0.0583804304
 C         -3.4411701677       -1.2550685693       -0.3572234294
 C         -4.3017567696       -0.2029710614       -0.5323339918
 N         -1.2016616135       -2.0450893953        0.0572311275
 C         -1.6984358187       -3.3803476485        0.0735480188
 C         -1.9571537294       -3.9848527067        1.2953630822
 C         -2.4405404622       -5.2814962845        1.3272076922
 C         -2.6651321551       -5.9693758469        0.1465199250
 C         -2.4050960732       -5.3627819119       -1.0716803103
 C         -1.9207110938       -4.0676809879       -1.1131079246
 C          0.1532508955       -1.8368589326        0.0102681540
 C          1.0517265254       -2.8965216116       -0.2086680425
 C          2.3904291489       -2.6682783823       -0.3658285951
 C          2.9304614503       -1.3555689981       -0.3293447472
 C          4.3081757175       -1.0682582262       -0.5457351484
 C          5.2623208454       -2.1070310227       -0.7989495715
 C          6.5868931987       -1.8808282193       -1.0179566368
 C          7.1304112278       -0.5692505153       -1.0181377660
 C          8.4889051561       -0.3597600846       -1.2504526310
 N          9.6166341711       -0.2233428382       -1.4450188916
 C          6.2450701728        0.4992193938       -0.7759377021
 N          6.5719217695        1.7846535760       -0.7395558074
 S          5.2349993244        2.6595644128       -0.4262406081
 N          4.1851004247        1.3942422667       -0.3268051200
 C          4.8386999457        0.2602982068       -0.5354319809
 C          2.0128621607       -0.3157195548       -0.0472730360
 C          0.6740916522       -0.5329267628        0.1371371356
 C         -0.2432563074        0.5759914939        0.6095812176
 C          0.2567117104        1.9239059084        0.1150881731
 C          0.4817462077        3.0024511364        0.9565065896
 C          0.9569004703        4.1998785897        0.4470879361
 C          1.2036296234        4.3354609328       -0.9065098061
 C          0.9568635658        3.2702211816       -1.7565310417
 C          0.4832664324        2.0761244406       -1.2495657107
 C         -0.2276286415        0.4784908837        2.1412084339
 C          0.9911014356        0.5198354823        2.8117828577
 C          1.0447904686        0.4139840570        4.1887152639
 C         -0.1193268163        0.2572858190        4.9226554890
 C         -1.3346508105        0.2175622988        4.2650356269
 C         -1.3901322532        0.3277935636        2.8850564413
 H         -7.6351870622       -0.8843174905        0.0415738537
 H         -6.2730510401       -1.9703743722        0.3383417891
 H         -6.3877284299       -0.4359323641        1.2086430587
 H         -5.7332487094       -1.9626371121       -2.1605415363
 H         -7.0906321890       -0.8708022199       -2.4550346671
 H         -5.4677516619       -0.4241815140       -2.9902643491
 H         -8.1943803678        1.2686141564       -1.3888430592
 H         -8.3092411345        3.7303034057       -1.3988910395
 H         -6.3137234902        5.0808940059       -0.9442919458
 H         -4.1438274533        3.9942560654       -0.4674371099
 H         -2.1794768926        2.3941814441        0.0436444925
 H         -3.7856030373       -2.2732964466       -0.4531781088
 H         -1.7762317214       -3.4359067048        2.2076507537
 H         -2.6411937779       -5.7542091052        2.2764759323
 H         -3.0423986525       -6.9801304159        0.1747246062
 H         -2.5789725382       -5.8987055746       -1.9923819677
 H         -1.7132968087       -3.5831837816       -2.0558513226
 H          0.6735114949       -3.9064368594       -0.2662191166
 H          3.0286569425       -3.5197286218       -0.5348563537
 H          4.9205080181       -3.1288330578       -0.8141677313
 H          7.2586585270       -2.7067929627       -1.2001790259
 H          2.4028825345        0.6870411170        0.0142987239
 H          0.2916737471        2.9137970936        2.0158424799
 H          1.1377628912        5.0282110503        1.1161860382
 H          1.5843287505        5.2664394562       -1.2990191078
 H          1.1386937761        3.3687986419       -2.8164310567
 H          0.2958331310        1.2448802997       -1.9147377243
 H          1.9061366490        0.6407078723        2.2525989736
 H          2.0007445241        0.4514124428        4.6896335933
 H         -0.0780689182        0.1682562448        5.9980490903
 H         -2.2513641954        0.1010963869        4.8249334305
 H         -2.3538889153        0.3037065240        2.3981904812
  84
       -131.85962297
 C         -6.5382677748       -0.9179213747        0.1534719864
 C         -5.6911867440       -0.2435629366       -0.9299520550
 C         -5.8904734797       -0.9422481846       -2.2784592362
 C         -6.0014224926        1.2339729797       -1.0292274931
 C         -7.1904723031        1.8475893655       -1.3559800134
 C         -7.2411791361        3.2356099365       -1.3875879535
 C         -6.1179359659        3.9956806187       -1.0966559205
 C         -4.9180831769        3.3888004562       -0.7666480224
 C         -4.8642432861        2.0034714733       -0.7333174413
 C         -3.7702390828        1.1058085849       -0.4275671188
 C         -2.4596714492        1.3617498740       -0.0552341898
 C         -1.5959430451        0.3071911361        0.1869788385
 C         -2.0466998649       -1.0154010998        0.0224240835
 C         -3.3829006003       -1.2714298709       -0.3232638612
 C         -4.2313192226       -0.2172975270       -0.5396351321
 N         -1.1567212119       -2.0658976006        0.1450464203
 C         -1.6639699922       -3.3953840563        0.1832036976
 C         -2.0870059796       -3.9130557703        1.3995948344
 C         -2.5850003009       -5.2030685391        1.4576275971
 C         -2.6606877828       -5.9719328453        0.3081650877
 C         -2.2398675796       -5.4514029461       -0.9048870127
 C         -1.7416161796       -4.1624684944       -0.9726418567
 C          0.1974162917       -1.8535465176        0.0804554042
 C          1.1015102917       -2.9006773329       -0.1717395159
 C          2.4348782506       -2.6544493691       -0.3515385964
 C          2.9608412230       -1.3376705978       -0.2921478202
 C          4.3207075757       -1.0260558361       -0.5737579762
 C          5.3147125929       -2.0457024219       -0.7267120345
 C          6.6211113455       -1.7863751035       -1.0094957019
 C          7.0969871038       -0.4607662486       -1.1946691113
 C          8.4338615455       -0.2219990481       -1.5095787659
 N          9.5454567669       -0.0620450791       -1.7683633636
 C          6.1685084192        0.5892452901       -1.0524495193
 N          6.4260571497        1.8832564403       -1.1939299958
 S          5.0497113012        2.7225692071       -0.9550525856
 N          4.0716981775        1.4305473228       -0.6655356783
 C          4.7840040799        0.3158181522       -0.7367853772
 C          2.0489019585       -0.3186385586        0.0707595536
 C          0.7128009659       -0.5509195077        0.2533865541
 C         -0.2129199433        0.5337817618        0.7585240835
 C          0.3526104235        1.8862567367        0.3579983925
 C          0.8992200496        2.7694420589        1.2764690448
 C          1.4797629793        3.9522274170        0.8492435700
 C          1.5227606029        4.2635118924       -0.4971157063
 C          0.9765324483        3.3870220841       -1.4198194614
 C          0.3985801577        2.2067611396       -0.9953931074
 C         -0.3602781191        0.4053891615        2.2804902441
 C          0.5011536419       -0.3794995163        3.0360659240
 C          0.3398709571       -0.4849146455        4.4075258057
 C         -0.6819408299        0.1929917799        5.0469645345
 C         -1.5390703542        0.9862561423        4.3033214565
 C         -1.3803790915        1.0894427050        2.9337758060
 H         -7.5923152571       -0.8704949434       -0.1087656735
 H         -6.2523920065       -1.9618587676        0.2611903605
 H         -6.3950406689       -0.4174621888        1.1087662225
 H         -5.6027669650       -1.9888129808       -2.2082434246
 H         -6.9334944357       -0.8876824567       -2.5802734915
 H         -5.2824887911       -0.4637421890       -3.0432569236
 H         -8.0722505776        1.2673100885       -1.5855610174
 H         -8.1671794193        3.7292213561       -1.6430851898
 H         -6.1815901896        5.0733686893       -1.1289425278
 H         -4.0431708078        3.9804687901       -0.5421662935
 H         -2.1085420464        2.3775863191        0.0467703184
 H         -3.7242383256       -2.2896367148       -0.4311204912
 H         -2.0215721772       -3.3012596256        2.2873341828
 H         -2.9128563361       -5.6077296990        2.4030007815
 H         -3.0485153523       -6.9779643318        0.3567498193
 H         -2.3003671600       -6.0492575122       -1.8016773440
 H         -1.4146045388       -3.7437621452       -1.9131265075
 H          0.7329756566       -3.9126928906       -0.2472451963
 H          3.0777155361       -3.4894148011       -0.5774017198
 H          5.0234211541       -3.0738625913       -0.5844545997
 H          7.3307039549       -2.5954453027       -1.1022066773
 H          2.4381623566        0.6755021405        0.2119720965
 H          0.8874894657        2.5319004613        2.3299410245
 H          1.9095765765        4.6267764537        1.5749830765
 H          1.9863623699        5.1806069762       -0.8281569148
 H          1.0107291325        3.6190230964       -2.4739366925
 H         -0.0128998098        1.5167094663       -1.7188123493
 H          1.3137671548       -0.9085346246        2.5617492389
 H          1.0209791509       -1.1011805433        4.9760759266
 H         -0.8075177955        0.1081823467        6.1160896085
 H         -2.3364691207        1.5280827590        4.7904558747
 H         -2.0571634514        1.7131952384        2.3695922086
