  91
       -136.01847278
 C         -2.6675470543        6.3068663087        0.6220854873
 C         -2.0781249579        5.5526507327       -0.5782661528
 C         -2.6120246463        6.2014159870       -1.8579449498
 C         -0.5483361636        5.6857480135       -0.5762172907
 C         -2.4449285756        4.0819448047       -0.4700009967
 C         -3.1795139545        3.4092484253       -1.4422265700
 C         -3.4809428687        2.0665482667       -1.3172974893
 C         -3.0546507373        1.3506890524       -0.2009025927
 N         -3.3134658664       -0.0169357711       -0.0765651294
 C         -2.3243233736       -1.0110823762        0.0764067781
 C         -0.9345387597       -0.8555551416       -0.0352319822
 C         -0.1134583427       -1.9347595013        0.4139119671
 C          1.2446845979       -1.8590404522        0.3844848143
 C          1.8852718431       -0.6967916440       -0.0957015144
 N          3.2878613856       -0.5966223441       -0.0771210481
 C          4.0547382938       -1.5359943542       -0.7483501665
 C          3.4641891633       -2.5036324487       -1.5620476670
 C          4.2313641655       -3.4619809295       -2.1955808980
 C          5.6078407990       -3.4710269240       -2.0329836373
 C          6.2186405518       -2.4888539316       -1.2735263241
 C          5.4634302703       -1.5023247928       -0.6471530270
 N          6.0698376719       -0.4830480283        0.0646591469
 C          7.4889495215       -0.4437280607        0.1687049639
 C          8.2490287232        0.0377650566       -0.8901572806
 C          9.6281747557        0.0716467415       -0.7828417825
 C         10.2473150094       -0.3706415150        0.3752339074
 C          9.4867629987       -0.8492212762        1.4302549841
 C          8.1072523813       -0.8881478764        1.3307182917
 C          5.3126895665        0.4981675623        0.6782383437
 C          5.9219181469        1.5512901410        1.3545743370
 C          5.1636065686        2.5000730106        2.0166340158
 C          3.7824373026        2.3912512717        2.0300501387
 C          3.1600094066        1.3621625545        1.3491049463
 C          3.9026009230        0.4233113605        0.6328815734
 C          1.0956952910        0.3481705121       -0.6070288800
 C         -0.2671480852        0.2731105621       -0.5955400315
 N         -2.8939597545       -2.2109870033        0.2935859067
 C         -4.2078645242       -2.0247962738        0.2409748880
 C         -5.2290042831       -3.0138934219        0.3604857164
 C         -4.9018248890       -4.3623902215        0.5132628449
 C         -5.8910142250       -5.3169607862        0.5936001834
 C         -7.2216465294       -4.9220445729        0.5116631284
 C         -7.5559529870       -3.5923447552        0.3664070967
 C         -6.5771623804       -2.5902133841        0.2960553796
 C         -6.8956244485       -1.1792465823        0.1850687354
 C         -8.2159793078       -0.7234211713        0.2177430649
 C         -8.5366793779        0.6151395238        0.1595566861
 C         -7.5212304479        1.5704143614        0.0855236821
 C         -6.2127305604        1.1725394323        0.0424044590
 C         -5.8565507959       -0.1947516436        0.0685651690
 C         -4.5285533634       -0.6552198936        0.0297175163
 C         -2.3231484645        2.0140118735        0.7845881660
 C         -2.0293150618        3.3530041891        0.6440772988
 H         -2.4340629802        7.3670378470        0.5499890937
 H         -2.2670997887        5.9331239186        1.5601055071
 H         -3.7493222367        6.1921908700        0.6432244212
 H         -3.6977275515        6.1537045022       -1.8963374036
 H         -2.2012552052        5.7194535311       -2.7420134212
 H         -2.3206570733        7.2495176588       -1.8810123935
 H         -0.1183050616        5.2869439269        0.3381370933
 H         -0.1232268481        5.1423617946       -1.4176856980
 H         -0.2623983680        6.7320937476       -0.6605574463
 H         -3.5234608744        3.9237466279       -2.3240887207
 H         -4.0432724249        1.5602144366       -2.0885516854
 H         -0.6152490793       -2.8037839969        0.8059339437
 H          1.8502944450       -2.6698365495        0.7635451715
 H          2.3952975704       -2.4944196744       -1.6980499610
 H          3.7507251290       -4.2021215586       -2.8155544378
 H          6.2103771793       -4.2283143699       -2.5088678636
 H          7.2921333562       -2.4807059613       -1.1669004550
 H          7.7540887667        0.3794587368       -1.7873931760
 H         10.2191633367        0.4458395752       -1.6050473877
 H         11.3232033219       -0.3424943642        0.4557521584
 H          9.9675607941       -1.1956127096        2.3325197062
 H          7.5028474074       -1.2582577598        2.1458396467
 H          6.9984755592        1.6201766275        1.3640621337
 H          5.6545474373        3.3091313143        2.5338524262
 H          3.1847610541        3.1063379346        2.5732047388
 H          2.0866695237        1.2748155402        1.3750805731
 H          1.5873870992        1.2020785412       -1.0524057933
 H         -0.8358358648        1.0564836853       -1.0658005040
 H         -3.8563552271       -4.6246752752        0.5594957003
 H         -5.6400187855       -6.3604588738        0.7131380883
 H         -8.0057492477       -5.6642223961        0.5629721073
 H         -8.6019173382       -3.3376098829        0.3033330490
 H         -9.0244285910       -1.4318053585        0.3030788353
 H         -9.5706177239        0.9255941517        0.1875712635
 H         -7.7690533371        2.6220362536        0.0680602975
 H         -5.4352393193        1.9168429189        0.0086033582
 H         -1.9875921564        1.4650283144        1.6518497994
 H         -1.4631935258        3.8369683848        1.4250705221
