55
 energy: -80.405361769236 gnorm: 0.000043866318 xtb: 6.7.1 (edcfbbe)
C            3.06960220728637       -3.44856181612974        1.30962413385447
C            2.18220041377679       -3.63826684248889        0.06963247772248
C            3.03857174362533       -3.52627172977498       -1.20135173324740
C            1.58135410068054       -5.04574685843272        0.12083282869186
C            1.11619059302111       -2.55554447846685        0.04891187125085
C           -0.25069101558621       -2.82792718058510        0.06312858421714
C           -1.18200670260245       -1.78746502544337        0.04705685193317
C           -0.81108635906416       -0.44076053003233        0.02713612020642
C            0.57305404294178       -0.17399603874406       -0.00492184524700
C            1.50639833595006       -1.21433800443632        0.01200965105768
N            0.99501076030554        1.14437009863473       -0.04753041885155
C            2.40105287962420        1.37415904464175       -0.10470202201658
C            3.06797260819623        1.27243152828373       -1.32086666275050
C            4.43570822858531        1.47594367638889       -1.37222147937470
C            5.14026156301112        1.77616498656208       -0.21724213860199
C            4.47381358102429        1.87506021200222        0.99440353543457
C            3.10624040783582        1.67600274592307        1.05528221131082
C            0.15481555268890        2.24023660015155        0.03609132456295
C            0.72353017619925        3.51782352163909       -0.00536258333304
C           -0.05508128045733        4.65134603421687        0.18221281529248
C           -1.41367345121745        4.50648099294568        0.43683561899079
C           -1.99123436864185        3.25027061522706        0.43602916062569
C           -1.26273287422894        2.07650969713715        0.17466136438245
B           -1.85512431440637        0.66624004349782        0.05157331378703
C           -3.29834377182050        0.15363353184129       -0.07924381440556
C           -4.46304011276231        0.92143175425792       -0.28176030655050
C           -5.72281820637399        0.36358854013855       -0.33991390308924
C           -5.89281861232093       -1.01156557484090       -0.22163477974420
C           -4.77419296243453       -1.81781581818593       -0.07440974334225
C           -3.50573661020788       -1.25154824618304       -0.02363359680940
O           -2.49146042117983       -2.16460236210103        0.07552109373509
H            3.82330083285245       -4.23189395166866        1.35252228911754
H            2.46694577324874       -3.49915816668900        2.21429011891443
H            3.57793644719767       -2.48826841562868        1.29134084283406
H            2.41271544207857       -3.62323447551518       -2.08630036071477
H            3.55379965470687       -2.57081729691863       -1.24950594676919
H            3.78563310891038       -4.31689889206844       -1.21866062402711
H            2.38260966291623       -5.78172027886887        0.13849893811568
H            0.96564640431548       -5.24039199607279       -0.75429909626204
H            0.98037969498475       -5.18183898567172        1.01701260779107
H           -0.63271575369580       -3.83442457299503        0.10119473820818
H            2.55734603756451       -0.97743227880084       -0.01206922206878
H            2.50891709532605        1.03502153136968       -2.21382333082390
H            4.95116034603462        1.39940971026423       -2.31776077324661
H            6.20749660264973        1.93194354990223       -0.26066245888022
H            5.02010474640824        2.10567568562456        1.89658057918663
H            2.57638303731858        1.74942850627667        1.99345441706950
H            1.78203376920299        3.63648548261031       -0.17830313531849
H            0.40003458913044        5.62916935875704        0.14417379926741
H           -2.02430843294260        5.38054970072141        0.61715259193781
H           -3.04544614397146        3.16191575669885        0.64381719937176
H           -4.36172427921803        1.98866249163437       -0.40058947392555
H           -6.58714156505077        0.99935112261928       -0.47650799676259
H           -6.87755966818813       -1.45229001036420       -0.25996152994942
H           -4.86429219811297       -2.89247478719262       -0.01086123846781
