55
 energy: -80.501041506581 gnorm: 0.000046855060 xtb: 6.7.1 (edcfbbe)
C            3.76360754276017       -1.72444572892372        1.41094051543138
C            3.04234336253992       -2.29604733754923        0.18113294187811
C            3.77743241473290       -1.86733447585686       -1.09768912452061
C            3.08808826535912       -3.82421294196580        0.27020021161920
C            1.62106911140451       -1.75349077918056        0.14005846315481
C            0.50471326647673       -2.58071016052935        0.16256122120176
C           -0.76851483536643       -2.02929600606407        0.10868802676273
C           -0.98265282082493       -0.64633327819339        0.05047572979794
C            0.15606746002314        0.18322855471388        0.04337885161117
C            1.43147849420448       -0.37885952428216        0.07511823258112
N           -0.01327049515694        1.55068684877367       -0.00290788974283
C            1.16427014590903        2.35387231357708       -0.10950703353109
C            1.65212824823947        2.69444027636931       -1.36430646985704
C            2.80029007126483        3.46077188669022       -1.47072095826446
C            3.46305045419313        3.88310439930547       -0.32991899919788
C            2.97727171974690        3.53986172718942        0.92167968177685
C            1.82904852621113        2.77561861550238        1.03574094000291
C           -1.23966138028305        2.18246008020947        0.09654687398008
C           -1.26581464780741        3.58480605803106        0.15741922825064
C           -2.44979499555421        4.26521699340233        0.31673607390361
C           -3.64513502676772        3.56514176197723        0.43470177406396
C           -3.63038983186592        2.19185103216322        0.34892957455961
C           -2.45456426258080        1.45533039178153        0.14912313122992
B           -2.39030968840707       -0.07829944816043        0.00307783753579
C           -3.49275643582106       -1.15649989018220       -0.18368138576542
C           -4.84572253377531       -0.93693698617360       -0.47596858366453
C           -5.75625639770947       -1.96479191355033       -0.59278691107285
C           -5.34197932093018       -3.28029529715637       -0.42006384534406
C           -4.01520811509036       -3.54799897188722       -0.16994239388909
C           -3.09408197780588       -2.50159280453425       -0.07211436920914
O           -1.80809789815989       -2.90766788258472        0.12606317767121
H            4.77239210279602       -2.12739073765681        1.47226152854603
H            3.22802180281913       -1.99377351943830        2.31919168694958
H            3.83241527539252       -0.64116590002259        1.36337162899644
H            3.83340679545029       -0.78511847642033       -1.17884375235799
H            4.79112370355075       -2.26256374734321       -1.09586326844281
H            3.25925603352197       -2.24933856759804       -1.97514215808948
H            4.12468976641857       -4.15408222724666        0.30189222799469
H            2.61619388680141       -4.28143810328478       -0.59640959350860
H            2.59461947288856       -4.17780675842624        1.17261024317980
H            0.58408074839492       -3.65307722110754        0.21228716651970
H            2.28966845671519        0.27250770162556        0.05837316013851
H            1.12777552945292        2.35707604405579       -2.24631292638078
H            3.17791795983996        3.72664344336056       -2.44681643047991
H            4.35896147993203        4.47960288499736       -0.41579701809764
H            3.49352600527911        3.86661258274548        1.81211531635659
H            1.44061942544871        2.50095374524408        2.00558976028904
H           -0.34410893389859        4.14288795579712        0.09098889806514
H           -2.44388243015334        5.34496123269170        0.36475576136035
H           -4.57316124162959        4.09611794853987        0.59014001158811
H           -4.55893650888995        1.65442805310060        0.45970891322100
H           -5.18263520889322        0.07527033197556       -0.63564218805657
H           -6.79100585104311       -1.75090822524883       -0.81856567290110
H           -6.05130960908112       -4.09132128000712       -0.49772014059335
H           -3.65627708025456       -4.56065667324268       -0.05913367724701
