  45
        -91.21843321
 C          0.6091082560        3.6993406429       -1.0780090527
 C         -0.2711620396        2.8680139354       -0.2229016943
 S         -1.8573035373        3.4649981048        0.0983311418
 C         -2.2753946962        2.0457728283        1.0272160693
 C         -3.4685356328        1.8334437615        1.6924044204
 C         -3.5895705056        0.6971244273        2.4721611672
 C         -2.5125111893       -0.1681527755        2.6162292374
 C         -1.3273321003        0.0503593850        1.9399607897
 C         -1.2081589275        1.1383184240        1.0793296970
 C         -0.0660949036        1.5675156361        0.2836097450
 C          1.0059569794        0.7220815129       -0.0280659121
 C          0.9899806680       -0.7273656281        0.0693969845
 C         -0.0933705909       -1.5558367456       -0.2459939304
 C         -0.3403822907       -2.8332853287        0.2953517695
 C          0.4869864250       -3.6357173403        1.2277613149
 S         -1.9129378744       -3.4275917234       -0.0903591506
 C         -2.2745615517       -2.0257265771       -1.0685625675
 C         -3.4363020622       -1.8153467454       -1.7876567431
 C         -3.5185439501       -0.6859196840       -2.5823284408
 C         -2.4353294484        0.1778309706       -2.6829365782
 C         -1.2804665669       -0.0397689571       -1.9558625265
 C         -1.1999333957       -1.1259105427       -1.0884378789
 C          2.3599621204       -1.1858126757        0.4389350824
 F          2.7252286952       -2.3784866514       -0.0848696955
 F          2.5454862565       -1.3204189349        1.7943037475
 C          3.3051862310       -0.0611130293       -0.0793283126
 F          4.2766496378        0.2348407742        0.8028112445
 F          3.9180741420       -0.4671855161       -1.2104035069
 C          2.3907482677        1.1701829692       -0.3595763731
 F          2.8111417349        2.2378144773        0.3658917254
 F          2.5607083249        1.5470076969       -1.6669163404
 H          0.0900643754        4.6121143612       -1.3612378967
 H          0.8960158973        3.1676812981       -1.9858714498
 H          1.5249825647        3.9719330486       -0.5538926459
 H         -4.2732591571        2.5473755293        1.6123570208
 H         -4.5129264962        0.5018425893        2.9948775886
 H         -2.5975600481       -1.0207402970        3.2724408473
 H         -0.4885210077       -0.6058716100        2.0999475444
 H          1.3139784456       -4.1162005356        0.7024812207
 H         -0.1210556181       -4.4127234856        1.6860138772
 H          0.9146681725       -3.0147759679        2.0138268406
 H         -4.2473595843       -2.5246764504       -1.7353242191
 H         -4.4172181773       -0.4926855194       -3.1471770885
 H         -2.4916088393        1.0285366204       -3.3446837323
 H         -0.4354680757        0.6170852161       -2.0782514889
  45
        -91.21842394
 C          0.5646665545        3.6487980216       -1.1794452128
 C         -0.2877332317        2.8525385069       -0.2644669584
 S         -1.8514916521        3.4754391869        0.1118760851
 C         -2.2494330643        2.0742837641        1.0767577546
 C         -3.4191214314        1.8856783504        1.7890011215
 C         -3.5293966222        0.7550115149        2.5785105886
 C         -2.4648471461       -0.1314075269        2.6810454837
 C         -1.3019372124        0.0648147129        1.9607704126
 C         -1.1938437648        1.1519898326        1.0977260196
 C         -0.0725740127        1.5641509187        0.2656751909
 C          0.9964437309        0.7159629790       -0.0472542246
 C          0.9829032687       -0.7330537229        0.0512629222
 C         -0.1002160882       -1.5608859632       -0.2696853047
 C         -0.3364766287       -2.8501574189        0.2498045658
 C          0.5014277726       -3.6675745508        1.1594759229
 S         -1.9104686878       -3.4438105235       -0.1299630067
 C         -2.2839108087       -2.0310177294       -1.0872413231
 C         -3.4488672903       -1.8200966130       -1.8010513855
 C         -3.5381906607       -0.6854693213       -2.5874683520
 C         -2.4577782246        0.1818939079       -2.6862278524
 C         -1.3000150236       -0.0363656197       -1.9640415102
 C         -1.2127755183       -1.1265863818       -1.1024335747
 C          2.3548174148       -1.2035315541        0.4010946212
 F          2.7409520061       -2.3269090034       -0.2530835682
 F          2.5202461191       -1.4969762287        1.7313180485
 C          3.3027271582       -0.0198796039        0.0365711390
 F          4.0520018445        0.3479311284        1.0943302713
 F          4.1590538525       -0.3729447261       -0.9405026882
 C          2.3763737801        1.1538673538       -0.4055127431
 F          2.7739692148        2.3064745390        0.1842267139
 F          2.5554022263        1.3648451958       -1.7510510626
 H         -0.0045780265        4.4850314021       -1.5790578102
 H          0.9282631941        3.0439274044       -2.0097406781
 H          1.4357016563        4.0469896346       -0.6575639738
 H         -4.2143371597        2.6123700733        1.7353727669
 H         -4.4346888148        0.5787381020        3.1385042411
 H         -2.5418617506       -0.9832978534        3.3391737917
 H         -0.4715992199       -0.6097899540        2.0861001767
 H         -0.0629673921       -4.5318155439        1.5025131028
 H          0.8200079558       -3.0915415443        2.0284972218
 H          1.3999016077       -4.0233876170        0.6543951158
 H         -4.2563644278       -2.5333706149       -1.7509866465
 H         -4.4390276413       -0.4924966326       -3.1491265080
 H         -2.5183816159        1.0365093784       -3.3426989713
 H         -0.4574475202        0.6228796240       -2.0880070248
  45
        -91.21840900
 C          0.5734260994        3.6428288377       -1.1913925795
 C         -0.2863424749        2.8389910715       -0.2902204926
 S         -1.8688757347        3.4366502022        0.0473753596
 C         -2.2642493237        2.0350940357        1.0130484621
 C         -3.4479276750        1.8257929686        1.6958314759
 C         -3.5535951767        0.6991042323        2.4916503905
 C         -2.4717473676       -0.1609879905        2.6324893676
 C         -1.2956131167        0.0546576079        1.9400985409
 C         -1.1916604588        1.1344702967        1.0672192364
 C         -0.0627307612        1.5565950192        0.2506806524
 C          1.0131081708        0.7133817911       -0.0519516884
 C          1.0009654591       -0.7359420910        0.0402997994
 C         -0.0881730892       -1.5589451559       -0.2721269988
 C         -0.3278073429       -2.8487737522        0.2456995537
 C          0.5277682736       -3.6909580690        1.1152566361
 S         -1.9270126277       -3.4087573158       -0.0772557675
 C         -2.3068580421       -1.9863079587       -1.0178514113
 C         -3.4938469403       -1.7463148843       -1.6845099741
 C         -3.5850072944       -0.6108999942       -2.4696861783
 C         -2.4856812690        0.2252328495       -2.6182847262
 C         -1.3066053753       -0.0210432536       -1.9410947811
 C         -1.2165226407       -1.1072345291       -1.0746536020
 C          2.3734460736       -1.2093454289        0.3845916027
 F          2.7674427594       -2.3105177174       -0.3027925857
 F          2.5329139576       -1.5445071578        1.7054062322
 C          3.3188009834       -0.0113284288        0.0631751024
 F          4.0190436470        0.3582054735        1.1540856744
 F          4.2191254758       -0.3431300486       -0.8806650568
 C          2.3939486904        1.1543823527       -0.4014299313
 F          2.7804801316        2.3150908902        0.1785070646
 F          2.5857805989        1.3498284969       -1.7477231400
 H         -0.0015062802        4.4631307784       -1.6155240691
 H          0.9713781722        3.0366757904       -2.0049159166
 H          1.4223691571        4.0639411511       -0.6507726000
 H         -4.2580234379        2.5333279127        1.6146958230
 H         -4.4696067170        0.5063912673        3.0282978709
 H         -2.5467362646       -1.0076149874        3.2977261682
 H         -0.4530148939       -0.5993294956        2.0922886753
 H          0.8445316941       -3.1466959120        2.0055146057
 H          1.4271887050       -4.0128500024        0.5902128523
 H         -0.0230027261       -4.5753484012        1.4273988031
 H         -4.3172792092       -2.4378486612       -1.6001285332
 H         -4.5029271376       -0.3943361601       -2.9938427986
 H         -2.5486681262        1.0762163029       -3.2790269185
 H         -0.4509119797        0.6128511460       -2.1029491885
  45
        -91.21838445
 C          0.5479718925        3.6502215636       -1.1665423696
 C         -0.2996680175        2.8532471255       -0.2478842333
 S         -1.8596499509        3.4763220661        0.1426739288
 C         -2.2488340136        2.0749188148        1.1109564668
 C         -3.4077548630        1.8900605564        1.8416053676
 C         -3.5075501161        0.7620942942        2.6364774313
 C         -2.4434049671       -0.1262389127        2.7247758748
 C         -1.2918543359        0.0654636162        1.9853152852
 C         -1.1949440523        1.1503074859        1.1179281338
 C         -0.0820303898        1.5627007096        0.2750271002
 C          0.9871058117        0.7167608679       -0.0453683079
 C          0.9739350680       -0.7314064013        0.0614299892
 C         -0.1058331221       -1.5601811573       -0.2660072312
 C         -0.3568787431       -2.8394140712        0.2686850869
 C          0.4597278852       -3.6385065845        1.2133075964
 S         -1.9186573962       -3.4411065891       -0.1476620795
 C         -2.2660410919       -2.0418594789       -1.1351486943
 C         -3.4089680649       -1.8424267845       -1.8868913582
 C         -3.4768557767       -0.7170038779       -2.6887499668
 C         -2.3981422539        0.1551295495       -2.7615998610
 C         -1.2626528394       -0.0510313433       -2.0015426219
 C         -1.1972531699       -1.1345757172       -1.1296550035
 C          2.3421862106       -1.1901532615        0.4364568015
 F          2.7207256484       -2.3618515263       -0.1267244497
 F          2.5090601440       -1.3767221186        1.7873664629
 C          3.2919214963       -0.0416466857       -0.0235437525
 F          4.1655252515        0.3001803940        0.9419865195
 F          4.0221999548       -0.4374130390       -1.0848492530
 C          2.3683871586        1.1605115538       -0.3925957649
 F          2.7741472481        2.2774176260        0.2605977740
 F          2.5421490987        1.4492411254       -1.7229455102
 H          1.4582324695        3.9871113883       -0.6697890609
 H          0.0000873860        4.5257976950       -1.5072533222
 H          0.8468350846        3.0650303623       -2.0365323169
 H         -4.2024282857        2.6180832635        1.7988248083
 H         -4.4036120159        0.5902086128        3.2125218171
 H         -2.5107955914       -0.9748306621        3.3882521521
 H         -0.4599979178       -0.6088400656        2.1012376365
 H          0.8366958346       -3.0234981061        2.0298629754
 H          1.3213822074       -4.0794973301        0.7100322501
 H         -0.1401846750       -4.4446119123        1.6298409822
 H         -4.2160854812       -2.5571728984       -1.8541160229
 H         -4.3600479802       -0.5338672249       -3.2810354954
 H         -2.4419745674        1.0027156266       -3.4283034672
 H         -0.4193196068        0.6113209867       -2.1030759044
  45
        -91.21816023
 C          0.6090704050        3.6092081068       -1.2730455913
 C         -0.2530072988        2.8428197254       -0.3411955442
 S         -1.8109820478        3.4922808251        0.0126518507
 C         -2.2424668386        2.1030912986        0.9794089076
 C         -3.4316312491        1.9286758533        1.6620718562
 C         -3.5766090035        0.7968634879        2.4440206559
 C         -2.5279799005       -0.1058757211        2.5677309713
 C         -1.3449627321        0.0761266822        1.8770985732
 C         -1.1997449519        1.1671807304        1.0243128668
 C         -0.0579397076        1.5608239484        0.2122369942
 C          1.0107865350        0.7033531799       -0.0756175478
 C          1.0049466149       -0.7487632417        0.0055888639
 C         -0.0713670718       -1.5864416724       -0.3117727008
 C         -0.2543991772       -2.9150484571        0.1365538410
 C          0.6654444937       -3.8198178030        0.8669643256
 S         -1.8644688677       -3.4843228662       -0.1096504195
 C         -2.3246313878       -2.0245039656       -0.9494706490
 C         -3.5560673150       -1.7759757511       -1.5259130684
 C         -3.7128870961       -0.6122591999       -2.2571311746
 C         -2.6325271493        0.2389064970       -2.4502319760
 C         -1.4085965328       -0.0171750702       -1.8615931146
 C         -1.2508508283       -1.1275684167       -1.0366017010
 C          2.3870884409       -1.2226976458        0.3252085609
 F          2.8318646455       -2.1987401591       -0.5114617852
 F          2.5323765942       -1.7454040443        1.5814481819
 C          3.2995913149        0.0311331789        0.2052058945
 F          3.7172956728        0.4205184235        1.4297264432
 F          4.4036342077       -0.2074819517       -0.5231623988
 C          2.3994512007        1.1427919910       -0.4013069615
 F          2.7558639368        2.3492197824        0.0943452119
 F          2.6477124337        1.2214358954       -1.7510949218
 H          0.0198697998        4.3721600972       -1.7775084224
 H          1.0593677372        2.9597101815       -2.0223126751
 H          1.4199223353        4.1066548332       -0.7386071601
 H         -4.2162003318        2.6652457952        1.5891620427
 H         -4.4982756698        0.6308512815        2.9799138405
 H         -2.6352068754       -0.9607329482        3.2177551182
 H         -0.5297768500       -0.6150758395        2.0132588119
 H          1.5901484656       -3.9761006368        0.3132904686
 H          0.1850059638       -4.7845721844        1.0154118727
 H          0.9297625462       -3.4148221826        1.8449438788
 H         -4.3631976065       -2.4827205303       -1.4146558932
 H         -4.6669237094       -0.3864632487       -2.7076772556
 H         -2.7460056487        1.1108461495       -3.0760715278
 H         -0.5711683337        0.6285434234       -2.0641607848
  45
        -91.21778492
 C          0.4238355190        3.5880426228       -1.2803372709
 C         -0.3527852013        2.8553091547       -0.2517723490
 S         -1.8348497590        3.5495498048        0.2926476071
 C         -2.1653207617        2.1835443024        1.3324728458
 C         -3.2351189742        2.0638644219        2.1999948617
 C         -3.2924079459        0.9505831511        3.0198692254
 C         -2.2770037220        0.0032872213        2.9854466598
 C         -1.2144892910        0.1296556463        2.1108258902
 C         -1.1601758272        1.2104767180        1.2350751502
 C         -0.1191644343        1.5768411750        0.2880523500
 C          0.9248081103        0.7153240166       -0.0695157304
 C          0.9088165351       -0.7299279695        0.0691032869
 C         -0.1544379452       -1.5672676949       -0.2951194997
 C         -0.3987726637       -2.8527604995        0.2233244936
 C          0.3716198867       -3.6093436246        1.2391608931
 S         -1.8913725005       -3.5216866141       -0.3218836028
 C         -2.2109612760       -2.1378313371       -1.3403036072
 C         -3.2808567959       -1.9985644698       -2.2047550963
 C         -3.3294618428       -0.8757740270       -3.0119062099
 C         -2.3046583943        0.0607423212       -2.9682591195
 C         -1.2419257945       -0.0857058644       -2.0970957106
 C         -1.1954955867       -1.1761609108       -1.2326732717
 C          2.2793376065       -1.1952034622        0.4318449964
 F          2.6723916319       -2.3166854457       -0.2230421960
 F          2.4378216908       -1.4943189619        1.7609811955
 C          3.2229197182       -0.0039760386        0.0745440268
 F          3.8812253016        0.4308422336        1.1682999386
 F          4.1578800775       -0.3708728236       -0.8204309744
 C          2.2995962593        1.1291841671       -0.4708482017
 F          2.6998250398        2.3295279913        0.0080179626
 F          2.4700753398        1.2159951152       -1.8318656838
 H         -0.1964675757        4.3564974804       -1.7366645176
 H          0.7836718158        2.9160559414       -2.0583260898
 H          1.2952229170        4.0742042082       -0.8381574097
 H         -3.9925770045        2.8305987937        2.2426928108
 H         -4.1166291987        0.8332469939        3.7063219357
 H         -2.3109507245       -0.8393719536        3.6589855323
 H         -0.4140057899       -0.5911209664        2.1261696298
 H          0.5926466064       -2.9890299822        2.1082071187
 H          1.3229522384       -3.9560488789        0.8343322701
 H         -0.1974254612       -4.4772789707        1.5642438664
 H         -4.0446250913       -2.7585248257       -2.2552389455
 H         -4.1536271848       -0.7428348940       -3.6955950145
 H         -2.3308161872        0.9111871565       -3.6322696064
 H         -0.4351160128        0.6272591209       -2.1091359550
  45
        -91.21760579
 C          0.4324876490        3.6076756349       -1.2333248696
 C         -0.3489803510        2.8718420380       -0.2106916367
 S         -1.8129963862        3.5857242178        0.3546468746
 C         -2.1627634703        2.2098756561        1.3740703421
 C         -3.2263207484        2.1014031376        2.2507082609
 C         -3.3017505837        0.9771107261        3.0537760081
 C         -2.3100337618        0.0066213228        2.9918805854
 C         -1.2535566961        0.1223412596        2.1083965201
 C         -1.1798777558        1.2166496843        1.2508863426
 C         -0.1359063076        1.5798734314        0.3054645584
 C          0.9049087344        0.7166946026       -0.0619132799
 C          0.8916215623       -0.7284294266        0.0821537368
 C         -0.1579713248       -1.5761548642       -0.2929259428
 C         -0.4092998956       -2.8544352638        0.2384694122
 C          0.3347074748       -3.5887122016        1.2899598048
 S         -1.8722690677       -3.5494763707       -0.3541830875
 C         -2.1722177002       -2.1800119607       -1.3984283343
 C         -3.2140815520       -2.0605448712       -2.2993929331
 C         -3.2519964325       -0.9417205439       -3.1127473963
 C         -2.2456771072        0.0127641144       -3.0366039516
 C         -1.2100999391       -0.1144317709       -2.1301700350
 C         -1.1744102421       -1.2035317128       -1.2638042373
 C          2.2564050370       -1.1680578677        0.4916237068
 F          2.6376787388       -2.3731032048        0.0086618941
 F          2.4159318879       -1.2658030227        1.8529882953
 C          3.2056708812       -0.0492755648       -0.0400336166
 F          4.1141607118        0.3202841073        0.8813223880
 F          3.8955989469       -0.4997788474       -1.1070090719
 C          2.2841177483        1.1478091054       -0.4342460379
 F          2.6987250220        2.2806052434        0.1850407597
 F          2.4474873698        1.4014431451       -1.7728919335
 H         -0.1379396052        4.4620022102       -1.5908187586
 H          0.6755404793        2.9671422800       -2.0809779078
 H          1.3727950248        3.9747273465       -0.8197066993
 H         -3.9639030865        2.8858806037        2.3141082781
 H         -4.1211797069        0.8683689930        3.7473845906
 H         -2.3571463845       -0.8466356331        3.6511017946
 H         -0.4713506350       -0.6177250864        2.1057186262
 H          1.2066008558       -4.0938347024        0.8703848832
 H         -0.3070231546       -4.3426695419        1.7410142686
 H          0.6895058442       -2.9147831973        2.0683061138
 H         -3.9659352827       -2.8307944141       -2.3705662862
 H         -4.0532663802       -0.8253678985       -3.8259355674
 H         -2.2648661234        0.8619243096       -3.7025397205
 H         -0.4161449464        0.6132967447       -2.1128184547
  45
        -91.21730369
 C          0.4357309528        3.6357755431       -1.1928924319
 C         -0.3441124020        2.8977183869       -0.1704549437
 S         -1.7852352992        3.6322860438        0.4261125056
 C         -2.1447132014        2.2516245734        1.4351907459
 C         -3.1961340301        2.1541948271        2.3275639551
 C         -3.2827012307        1.0215635574        3.1176171184
 C         -2.3127235488        0.0316183903        3.0272784055
 C         -1.2672966253        0.1376332362        2.1294875149
 C         -1.1832077363        1.2411347708        1.2849636984
 C         -0.1455186556        1.5963119500        0.3290104682
 C          0.8820968698        0.7242001992       -0.0535900504
 C          0.8643715480       -0.7206263094        0.0985055801
 C         -0.1755062064       -1.5760068768       -0.2874787291
 C         -0.4219680348       -2.8524228446        0.2484623965
 C          0.2942889560       -3.5567952752        1.3391919254
 S         -1.8433243451       -3.5864650154       -0.3961750174
 C         -2.1332245128       -2.2304609457       -1.4608244074
 C         -3.1382180308       -2.1436755244       -2.4062213084
 C         -3.1741287606       -1.0279503058       -3.2239047592
 C         -2.2050246973       -0.0401600597       -3.1028848041
 C         -1.2055853631       -0.1348422458       -2.1529409182
 C         -1.1685018104       -1.2265287911       -1.2899483606
 C          2.2305671581       -1.1590734785        0.5052318332
 F          2.5972596545       -2.3826255948        0.0608261881
 F          2.4089145932       -1.2078882270        1.8670649974
 C          3.1765209019       -0.0657961674       -0.0807960659
 F          4.1434563418        0.2878950673        0.7850018608
 F          3.7946389364       -0.5415385617       -1.1810473795
 C          2.2612797778        1.1469401384       -0.4391636442
 F          2.6971338201        2.2636291027        0.1956457879
 F          2.4081193542        1.4246002583       -1.7745336321
 H         -0.1253703578        4.5047201405       -1.5293526946
 H          0.6563345054        3.0049163548       -2.0535889637
 H          1.3874498821        3.9815775868       -0.7869735432
 H         -3.9169427186        2.9523084471        2.4112015359
 H         -4.0936232697        0.9206665523        3.8222887877
 H         -2.3679653425       -0.8297866031        3.6751909243
 H         -0.5013337738       -0.6185075136        2.1052196124
 H          0.6675048842       -2.8570283882        2.0849056364
 H          1.1505776915       -4.1102812127        0.9489213351
 H         -0.3723357825       -4.2678509632        1.8232916190
 H         -3.8619163189       -2.9369714424       -2.5085372230
 H         -3.9468876464       -0.9371382777       -3.9716083790
 H         -2.2252250260        0.8103471362       -3.7670462655
 H         -0.4397206059        0.6206404248       -2.0980023376
  45
        -91.21689594
 C          0.3804159711        3.5991314622       -1.2443230351
 C         -0.3711032583        2.8869506086       -0.1830403061
 S         -1.7855600633        3.6402834702        0.4525522855
 C         -2.1202048684        2.2744095205        1.4904753371
 C         -3.1362253664        2.1978834948        2.4249856581
 C         -3.2035395486        1.0742796218        3.2298477806
 C         -2.2527987254        0.0690969683        3.1075847729
 C         -1.2434238922        0.1532750743        2.1671808532
 C         -1.1760057261        1.2516750666        1.3146421612
 C         -0.1647570973        1.5920202640        0.3266830765
 C          0.8593581042        0.7184713036       -0.0639271876
 C          0.8454732763       -0.7252860692        0.0980403459
 C         -0.1850308092       -1.5848941562       -0.3030205547
 C         -0.4361283418       -2.8621057120        0.2279456257
 C          0.2659991154       -3.5643272396        1.3291170352
 S         -1.8414332988       -3.6024146253       -0.4447005406
 C         -2.1150449469       -2.2485191013       -1.5167021427
 C         -3.0986161220       -2.1666999499       -2.4848896981
 C         -3.1199462609       -1.0524106976       -3.3051146971
 C         -2.1583095832       -0.0601156596       -3.1632657434
 C         -1.1810485637       -0.1494045534       -2.1901296682
 C         -1.1591453367       -1.2399344734       -1.3253310542
 C          2.2098070820       -1.1543039345        0.5207277590
 F          2.5871043361       -2.3797200750        0.0904970301
 F          2.3747254568       -1.1910055634        1.8843981107
 C          3.1560227780       -0.0611634308       -0.0669068427
 F          4.1131542880        0.3056220469        0.8042515737
 F          3.7864290670       -0.5448903002       -1.1567091364
 C          2.2383905474        1.1440107097       -0.4458218221
 F          2.6636071095        2.2699951098        0.1801361649
 F          2.3933517325        1.4091729094       -1.7825956599
 H         -0.1854360331        4.4646099985       -1.5816043256
 H          0.5704472791        2.9480430923       -2.0975529390
 H          1.3466015873        3.9466857466       -0.8760140829
 H         -3.8429077185        3.0059655301        2.5306667192
 H         -3.9846757666        0.9916405588        3.9697327870
 H         -2.2948662918       -0.7871276499        3.7633568860
 H         -0.4918387746       -0.6159618847        2.1135860039
 H         -0.4042821269       -4.2797888133        1.8015273049
 H          0.6239226703       -2.8633197262        2.0812986062
 H          1.1314468842       -4.1123186512        0.9514902108
 H         -3.8162277301       -2.9632674987       -2.6033833808
 H         -3.8742099999       -0.9668878612       -4.0720067579
 H         -2.1655205816        0.7883604933       -3.8302653093
 H         -0.4181171708        0.6078293889       -2.1189002561
  45
        -91.21679696
 C          0.3638389116        3.5874338106       -1.2601412579
 C         -0.3800455820        2.8808883708       -0.1898487952
 S         -1.7915562458        3.6345768787        0.4518665995
 C         -2.1159934489        2.2730345431        1.4989451696
 C         -3.1237266152        2.1993049966        2.4426566192
 C         -3.1829708288        1.0788949145        3.2525959614
 C         -2.2331006863        0.0734557422        3.1256596568
 C         -1.2319238579        0.1548149610        2.1763512255
 C         -1.1724061611        1.2503777910        1.3195614833
 C         -0.1682562203        1.5888535783        0.3240631015
 C          0.8567554725        0.7166042867       -0.0674402657
 C          0.8441267132       -0.7267942288        0.0961400220
 C         -0.1865778760       -1.5855101897       -0.3064481020
 C         -0.4422200221       -2.8613228444        0.2254165250
 C          0.2583693761       -3.5643724902        1.3269453541
 S         -1.8501286812       -3.5969698257       -0.4470141684
 C         -2.1165118903       -2.2444598011       -1.5227715206
 C         -3.0968548101       -2.1610442615       -2.4941432330
 C         -3.1102486131       -1.0494370544       -3.3182929874
 C         -2.1437987959       -0.0615915945       -3.1775378597
 C         -1.1698910408       -0.1523899412       -2.2011783234
 C         -1.1566057293       -1.2396126665       -1.3321030477
 C          2.2079242906       -1.1553754072        0.5203536775
 F          2.5877126710       -2.3780808997        0.0842054672
 F          2.3692294148       -1.2000734250        1.8841599839
 C          3.1546560242       -0.0573343186       -0.0583379589
 F          4.0978875899        0.3165365897        0.8250513830
 F          3.8024331525       -0.5381383268       -1.1389779224
 C          2.2352243614        1.1430742128       -0.4492257070
 F          2.6561075264        2.2749648567        0.1686058380
 F          2.3922676041        1.3981914378       -1.7878028745
 H         -0.2051567127        4.4499613530       -1.5997165719
 H          0.5494716893        2.9306393801       -2.1100411074
 H          1.3319215113        3.9382912310       -0.9001273591
 H         -3.8310263730        3.0065496250        2.5505605682
 H         -3.9568061895        0.9991704886        4.0004229347
 H         -2.2676153249       -0.7791354827        3.7865460751
 H         -0.4792324010       -0.6132052394        2.1198238731
 H          1.1309383196       -4.1027146201        0.9520291169
 H         -0.4089373362       -4.2878350364        1.7909918235
 H          0.6057213858       -2.8646711282        2.0854129705
 H         -3.8186123982       -2.9540128776       -2.6116917346
 H         -3.8628830006       -0.9620487805       -4.0866698622
 H         -2.1450231265        0.7846605683       -3.8474398733
 H         -0.4038612258        0.6016637758       -2.1291384491
