  93
       -156.30874384
 F         -2.7054645437       -2.9581942374       -2.1998224523
 C         -2.6169308433       -3.3953869656       -0.9351440610
 F         -1.4454293202       -2.9229768983       -0.4575284357
 F         -2.4778567609       -4.7288048009       -1.0000529332
 C         -3.7734667747       -2.9651800931       -0.0795236505
 C         -4.1375580045       -3.7268670866        1.0232924135
 C         -5.1635953046       -3.2843647693        1.8418379828
 C         -5.8020332990       -2.0863120472        1.5797291383
 C         -5.4340949325       -1.3274064313        0.4699675255
 N         -6.0146185180       -0.0765037362        0.2335449992
 C         -5.2939333186        1.1020296677        0.1305750140
 C         -3.8408250797        1.1613678837        0.1894650988
 C         -3.1030263387        0.4265491077        1.1168426190
 C         -1.7245333896        0.4592359569        1.0924493074
 C         -1.0433734602        1.2373960222        0.1580014779
 C          0.4237825206        1.2359119066        0.1170027124
 C          1.1322135527        0.0437047686        0.2558475604
 C          2.5113952909        0.0359701360        0.2139275902
 C          3.2282235726        1.2196375887        0.0462218184
 C          4.6960429475        1.2116545802        0.0159824392
 C          5.3898268908        0.2027092140       -0.6504997925
 C          6.7691083369        0.1855848054       -0.6751382224
 C          7.4960719485        1.1788190461       -0.0205878576
 C          8.9497687094        1.2109645510       -0.0266544070
 N          9.6379190505        2.3194943389       -0.0753925482
 C         10.9534610403        1.9510282424       -0.1145377625
 C         12.1056217552        2.7284509037       -0.1675424870
 C         13.3189045122        2.0744749019       -0.1781026170
 C         13.4012492822        0.6811808797       -0.1270159149
 C         12.2712896673       -0.1103216955       -0.0762151458
 C         11.0474381285        0.5391442075       -0.0865117395
 N          9.7488810692        0.0844472446       -0.0302254081
 C          9.3585783118       -1.2543290737        0.1290484541
 C          8.5032567562       -1.6130530791        1.1665609304
 C          8.1300188986       -2.9346531061        1.3213667117
 C          8.6137328442       -3.9035792043        0.4569995988
 C          9.4707683840       -3.5468754969       -0.5704106726
 C          9.8432621732       -2.2255896054       -0.7403196800
 C          6.8068984722        2.2033738489        0.6277528082
 C          5.4286659754        2.2170462456        0.6466836183
 C          2.5178716114        2.4110462632       -0.0906652120
 C          1.1383800123        2.4182670574       -0.0633671159
 C         -1.7861635994        2.0139810151       -0.7299115620
 C         -3.1648457432        1.9767478965       -0.7167012609
 N         -6.0699159427        2.1383399621       -0.0249200208
 C         -7.3451090827        1.6613351911       -0.0220391674
 C         -8.5530839750        2.4065305536       -0.1159523932
 C         -8.5379246733        3.8012735009       -0.2223020899
 C         -9.7154406806        4.5043476595       -0.2719583715
 C        -10.9262434635        3.8168693121       -0.2107259101
 C        -10.9525681441        2.4453650335       -0.1129203422
 C         -9.7706809412        1.6896309674       -0.0705121610
 C         -9.7635329225        0.2383944967       -0.0123227283
 C        -10.9517123392       -0.5050023093       -0.0579213441
 C        -10.9531083072       -1.8795913667       -0.0627761623
 C         -9.7504514293       -2.5789904845       -0.0466650618
 C         -8.5646038147       -1.8894657987        0.0100552229
 C         -8.5425585788       -0.4879081188        0.0572949052
 C         -7.3442220711        0.2769026746        0.1262648535
 C         -4.4193971973       -1.7743082993       -0.3707634532
 H         -3.6241374066       -4.6519108102        1.2341755967
 H         -5.4546038918       -3.8695783223        2.7000614854
 H         -6.5839711013       -1.7257128296        2.2317919201
 H         -3.6069578300       -0.1587003847        1.8722038672
 H         -1.1648383438       -0.1123131985        1.8177108144
 H          0.5927151515       -0.8849788647        0.3722390955
 H          3.0437687073       -0.8964666213        0.3327196882
 H          4.8396274786       -0.5626741441       -1.1778997203
 H          7.2810394385       -0.5911204349       -1.2236330083
 H         12.0372537532        3.8039222202       -0.1940389490
 H         14.2326207116        2.6486617662       -0.2195983689
 H         14.3739946615        0.2122876632       -0.1254646436
 H         12.3401542032       -1.1867223999       -0.0236517989
 H          8.1364393801       -0.8535130396        1.8409404479
 H          7.4641298402       -3.2095687614        2.1255561663
 H          8.3230872711       -4.9352550409        0.5843452205
 H          9.8481053139       -4.2986062150       -1.2474392516
 H         10.4965174814       -1.9372444403       -1.5505878388
 H          7.3760844528        2.9794488210        1.1150029260
 H          4.9090179507        3.0030076487        1.1746106391
 H          3.0545291409        3.3362632394       -0.2413104828
 H          0.6054168662        3.3527991933       -0.1617505648
 H         -1.2744838787        2.6278275422       -1.4562659113
 H         -3.7403029489        2.5658598931       -1.4138629752
 H         -7.5787942086        4.2940788927       -0.2550113939
 H         -9.7093847742        5.5811059864       -0.3520680402
 H        -11.8556090162        4.3668339521       -0.2410324720
 H        -11.9131762153        1.9576705417       -0.0659663613
 H        -11.9005190167        0.0043280681       -0.1023411753
 H        -11.8887655149       -2.4174464833       -0.0977587081
 H         -9.7480698567       -3.6581027324       -0.0844357415
 H         -7.6345977911       -2.4360204272       -0.0050416909
 H         -4.1328779892       -1.1916841184       -1.2322582275
