111
 energy: -152.361880888418 gnorm: 0.000063098501 xtb: 6.7.1 (edcfbbe)
C            8.69339713636803        0.44912430546806       -1.70494750011754
C            7.55978180106999        1.26302844327273       -2.33679400705131
C            7.92822514761461        2.75121421644407       -2.23653445774397
C            7.44382156880539        0.85424652919754       -3.81323913277035
C            6.22141784208216        1.03535891370855       -1.65026126281214
C            5.09228506932555        1.71946545162645       -2.12112264129418
C            3.83992585962556        1.57955868970436       -1.55752546437438
C            3.70830202881096        0.72814408125184       -0.46943460166750
C            4.82468974922080        0.00974228589726        0.01105652008630
C            6.07054741472513        0.16721652540202       -0.57583931212549
C            4.34608424163515       -0.80506895056534        1.09892187046664
C            4.96953868710668       -1.69618307063160        1.95812235172244
C            4.23044892235708       -2.32951406211757        2.95002827111426
C            4.84901273793948       -3.32136737043723        3.92359946990655
C            4.68553989460942       -2.78877936693757        5.35540644763284
C            4.13276094058279       -4.67364923438851        3.78644828595562
C            6.34235253585437       -3.54620132294987        3.66697001398306
C            2.86572756539434       -2.03039633125054        3.06066942208146
C            2.21942567484802       -1.14824167603149        2.21795822096381
C            2.96313651613002       -0.54312768093591        1.21428921592019
N            2.58809851471991        0.37707028037889        0.25671764989108
C            1.30212836787861        0.90094381632232        0.07704049122967
C            1.13041253968915        2.27325505099186        0.00454419316744
C           -0.14679512764919        2.83330606721810       -0.16132271074274
C           -0.23523252424191        4.29166595070228       -0.21994582230348
O            0.82630118202165        4.98247700472124       -0.26313374405932
C           -1.52200767282988        4.95225677139266       -0.20241519032446
C           -1.54465753511152        6.36820704984816       -0.28110095315568
C           -2.74303537050059        7.02715390344550       -0.24454750957690
C           -3.93196989017767        6.29441760906379       -0.12706444033608
C           -3.82780670222042        4.91691553439327       -0.05094195342413
N           -2.67614182711953        4.28294425085696       -0.08668621680152
C           -1.23781309668394        1.96769742935742       -0.28575641815428
C           -1.06782701512185        0.59351203310892       -0.16969906510557
N           -2.18017531792159       -0.24544918090808       -0.28160055813998
C           -3.38384666059383       -0.06541128996967        0.36924289821685
C           -3.75771999005823        0.88251657031847        1.31164672979369
C           -5.03850571608962        0.81415407134157        1.82260444270262
C           -5.96089832082692       -0.16948725528892        1.44045430041976
C           -7.35394661641487       -0.14989075495642        2.05141336730943
C           -8.24698161689920       -1.27592517774132        1.52124242180108
C           -8.02775907545578        1.19006595860709        1.71762068764827
C           -7.23868337098029       -0.30835580931637        3.57514048208908
C           -5.56235528291381       -1.13111619271883        0.51913298312343
C           -4.28313429728761       -1.08486660742407       -0.01200389232292
C           -3.57751892761517       -1.91720125032738       -0.95385905336285
C           -3.93855483545079       -3.04636049798894       -1.67163536827107
C           -3.02628084911975       -3.63105237187913       -2.54204605193772
C           -3.35049978329394       -4.87764683448779       -3.35129995449419
C           -3.23973360890243       -4.55019708222515       -4.84821521495542
C           -4.76352170859650       -5.40434479307130       -3.08239458795902
C           -2.35089763317662       -5.98577691141846       -2.98575946721263
C           -1.76362762935372       -3.04006023408334       -2.68223881805233
C           -1.37840099319012       -1.91524016038086       -1.98002489204844
C           -2.28749793375416       -1.35921865922551       -1.09098737036095
C            0.20189139621077        0.04663407897226        0.00933940236762
H            8.83235285113068        0.71749153195838       -0.66016121166488
H            8.49816972815472       -0.61819302092907       -1.77913740493188
H            9.62302370079003        0.65709950389591       -2.23091665919114
H            7.18898293496322        3.37903113303201       -2.72630891244684
H            7.99277652978176        3.05374059569921       -1.19301327391483
H            8.89231657419002        2.92976107424936       -2.70819038196144
H            8.39994379760088        0.99086431945653       -4.31402489400757
H            6.69965174630194        1.45075080120942       -4.33356455267889
H            7.15812054106528       -0.19290564935779       -3.89238325981481
H            5.19031662060291        2.38805464859839       -2.96239166718313
H            2.99399289195979        2.12020025024380       -1.95459109259521
H            6.90228817978948       -0.39432011472269       -0.18559572235953
H            6.02464637886082       -1.87597063985186        1.84107250603955
H            3.63826255866995       -2.67814992135263        5.62245663568099
H            5.14649114915427       -3.47447128399384        6.06329617467137
H            5.16644055307356       -1.81726737071181        5.45263408948700
H            4.22765220824963       -5.04783717410160        2.76893411500783
H            3.07553154204591       -4.59006825062856        4.02188357003594
H            4.57571702470968       -5.40032407771056        4.46424595446150
H            6.72742664502008       -4.26809668025714        4.38445293734790
H            6.90423044677154       -2.62281831297232        3.78770173577028
H            6.51287613554195       -3.94234695156111        2.66848012510394
H            2.28305419128395       -2.49896330943561        3.83850837201290
H            1.17127119254295       -0.92812560919858        2.35138029561044
H            1.97204095550836        2.94198562741307        0.10265816595677
H           -0.59373081443115        6.87301987513557       -0.36754397551980
H           -2.77416853841427        8.10578968443705       -0.30633213478089
H           -4.89365380654738        6.77940392529090       -0.09606652423127
H           -4.70453025093405        4.28796817604716        0.04108954026947
H           -2.21515395132961        2.37169164600785       -0.49617356178365
H           -3.07400294869230        1.65123170556122        1.63758289646766
H           -5.32722547986538        1.55687523027543        2.55011165404815
H           -9.22891733121141       -1.20618892807941        1.98500359838078
H           -8.37862816310480       -1.19704054826352        0.44448525862297
H           -7.83216511486126       -2.25195738544626        1.76214428272564
H           -8.08636638423036        1.32360126652412        0.63903688471706
H           -7.47662059478451        2.02802421239107        2.13534267796117
H           -9.03708525835301        1.21159805302786        2.12328391424615
H           -6.74439032409124       -1.24656664277045        3.81968386722034
H           -6.66733879380138        0.50291319998380        4.01771114514566
H           -8.22904951272128       -0.31212437735683        4.02560300771724
H           -6.22638238742396       -1.91880960892917        0.20616091098380
H           -4.92911526524192       -3.44786799547319       -1.54204290084707
H           -3.92795174711878       -3.74884317947824       -5.11033922360072
H           -2.23441270650561       -4.23570939701745       -5.11429150114085
H           -3.48962328492912       -5.42748249146373       -5.44124673272717
H           -5.51550969503438       -4.66844933082801       -3.35788219208722
H           -4.88901313143223       -5.67171691085503       -2.03565644965072
H           -4.93550130471273       -6.29769278426802       -3.67948881568305
H           -1.33061197851568       -5.69485070369589       -3.21953703571554
H           -2.58100203593912       -6.89319335821919       -3.54007193397506
H           -2.40729904586904       -6.20758340974945       -1.92177203297711
H           -1.05160619621182       -3.47017709124173       -3.36932855317888
H           -0.40344002241775       -1.47912643546420       -2.13483168200574
H            0.33123412298978       -1.02029722926316        0.09195800762764
