111
 energy: -152.425177478628 gnorm: 0.000037180888 xtb: 6.7.1 (edcfbbe)
C            8.74557986790501        0.36303458848382       -1.51461035216837
C            7.65754074496104        1.22572663116767       -2.16177318769685
C            8.06751727308862        2.69864006550371       -2.01346561984604
C            7.57874444578879        0.85473379773576       -3.65031398252553
C            6.29078756468508        1.02097338168436       -1.52228093254026
C            5.19813321319683        1.74996384206623       -2.01123654271637
C            3.92424814298564        1.63504812776914       -1.49163195568334
C            3.73000945027871        0.76258578920482       -0.43212969065653
C            4.80632574221828       -0.00203675579325        0.06272858726609
C            6.07793400271409        0.13371845297500       -0.47975957802714
C            4.27170938887559       -0.83407420449052        1.10672499388808
C            4.84840316762701       -1.76500819839960        1.96141143091993
C            4.06723846766158       -2.40787151725993        2.90800329241108
C            4.62921935522810       -3.44558108171289        3.87036612664777
C            4.42690524648947       -2.95909219200087        5.31320210930574
C            3.89138852328463       -4.77664930381158        3.66156879368631
C            6.12596988104663       -3.69461192005133        3.65932554542875
C            2.70733150743017       -2.07810223971549        2.98531679889612
C            2.10833101013589       -1.15663387918219        2.14968648680412
C            2.89442935664659       -0.54253575715022        1.18708705761721
N            2.57333809128558        0.42612787454941        0.25100681450744
C            1.30694981528496        0.96890438428788        0.02825147024703
C            1.14078797162087        2.34553072003832       -0.07488419306351
C           -0.12357320122396        2.88602700966206       -0.29943861764393
C           -0.23107778461445        4.35635137782115       -0.41113577782694
O            0.70294524603478        5.04075037580259       -0.79882505619866
C           -1.51708941869164        4.99643062774458       -0.01184176840871
C           -1.80382712422485        6.28340648148742       -0.46729648747492
C           -2.98624230473207        6.88336850718848       -0.06755982853565
C           -3.83291677423929        6.18330818158793        0.77760804480841
C           -3.45260833244279        4.90942974002045        1.18223051040729
N           -2.33167416111533        4.32788837647980        0.80232603557600
C           -1.22405376306953        2.04741614713946       -0.43998861407760
C           -1.06374587142661        0.66916409890554       -0.32139970643711
N           -2.17121426442616       -0.17174653095968       -0.43933795994459
C           -3.38877498959394        0.00930759594090        0.19589958385958
C           -3.79061928882112        0.98257839050395        1.09768830414710
C           -5.07091079252097        0.89904762886950        1.60742428011028
C           -5.96761102651777       -0.12128442446930        1.26140616336867
C           -7.36229677407925       -0.11338940847385        1.87301918410872
C           -8.22532896504663       -1.28153322575245        1.38595187134664
C           -8.07281888206816        1.19370847622352        1.49009070090302
C           -7.24484235451453       -0.21316805175877        3.40131461114573
C           -5.54233287041358       -1.10237119399672        0.38060390880265
C           -4.25863077320840       -1.04540902632547       -0.14790450569044
C           -3.52975305095954       -1.90168145098129       -1.04446926895074
C           -3.86668865806339       -3.06738710654213       -1.72058500934301
C           -2.94101205983626       -3.67180993454787       -2.55571393814375
C           -3.23825781286706       -4.95397363259127       -3.32154974354234
C           -3.12616284260076       -4.67904647414344       -4.82864956779038
C           -4.64364271502047       -5.49506829502599       -3.04067304182445
C           -2.22386603503653       -6.03280704159485       -2.91313539970350
C           -1.68591310092942       -3.06719455002528       -2.70782755495285
C           -1.32448122565997       -1.90901938858103       -2.04886882955238
C           -2.24878389560309       -1.33047552057188       -1.19291814439007
C            0.19911175777293        0.13269497527573       -0.08669115299139
H            8.85669112400256        0.60073897631339       -0.45901843387227
H            8.52065782190767       -0.69575948763043       -1.62148455297235
H            9.69840766799945        0.55482224747215       -2.00438072962209
H            7.36347725477545        3.35932709055915       -2.51200692765683
H            8.10547909690288        2.97407522186731       -0.96111680141201
H            9.05195073708716        2.85957938436873       -2.44851890169709
H            8.55408703273169        0.97301756001507       -4.11815741161437
H            6.86928789066882        1.48487795661471       -4.17969776689527
H            7.26423896635330       -0.18115692470335       -3.76298323055655
H            5.34328550129757        2.43450366845208       -2.83315509783557
H            3.10948999486301        2.20753897935604       -1.90963088824881
H            6.87712984179763       -0.46475170178646       -0.07569273781024
H            5.90321160402248       -1.96311851597740        1.87078201695171
H            3.37319445370127       -2.83336009206297        5.54651032737983
H            4.84691471779182       -3.67855973465233        6.01327412702180
H            4.92477511627535       -2.00240136357801        5.46026311644613
H            4.01489630835766       -5.11761960903798        2.63533747513182
H            2.82800410896960       -4.67690474151244        3.86110285127827
H            4.29323209712817       -5.53665384204552        4.32871432199472
H            6.47086924484300       -4.44735711231804        4.36573711335977
H            6.70144239020031       -2.78726611315564        3.82866844388433
H            6.32375379652525       -4.06158275429279        2.65463631836975
H            2.08859680608197       -2.55511390286142        3.73009219077637
H            1.06115821798073       -0.91803231936731        2.26108870427434
H            1.98232788416606        3.01087711304217        0.04249022885145
H           -1.10179096308351        6.77879611277995       -1.12027419679300
H           -3.23836106293959        7.87753205822723       -0.40562144869810
H           -4.76231710222045        6.61123277827608        1.11856356965299
H           -4.07499245814939        4.32356628154810        1.84553620663522
H           -2.19544449562707        2.45187728781608       -0.66853127655837
H           -3.12796198436930        1.77988258670896        1.39782147995428
H           -5.38259578652606        1.65742158676225        2.30928942290968
H           -9.20971282991454       -1.22125131822275        1.84637096700388
H           -8.35654224789664       -1.24736548427875        0.30666676224009
H           -7.78423590216970       -2.23650205715402        1.66261358844023
H           -8.13536870097766        1.28392111785435        0.40717694512359
H           -7.54314474550061        2.06132003096551        1.87373221182387
H           -9.08228797219167        1.20460877903699        1.89644255276267
H           -8.23473217176671       -0.22629854779993        3.85328108593643
H           -6.72615543184504       -1.12874922998408        3.67926123944681
H           -6.69379372015609        0.62755872270692        3.81387112835712
H           -6.18231073954519       -1.91994774028140        0.09389305982167
H           -4.85358069128083       -3.47614942830657       -1.58238250548364
H           -3.82616210664622       -3.89864407155609       -5.12147636839929
H           -2.12478432869986       -4.35647973906674       -5.10056193536562
H           -3.35806834616136       -5.58059646124349       -5.39224265524926
H           -5.40649010205459       -4.78295471739282       -3.34743565691722
H           -4.77069306282366       -5.72317426008777       -1.98473134868783
H           -4.79695880875001       -6.41371699879521       -3.60381061584008
H           -1.20677111292168       -5.73241071830304       -3.14948195012410
H           -2.43434772991338       -6.96247625696994       -3.43809121638786
H           -2.28366893882252       -6.21948825019950       -1.84249666209533
H           -0.95997807759528       -3.51401372395685       -3.37007134549602
H           -0.35289653409396       -1.46759796555026       -2.21411014117114
H            0.32162619019881       -0.93556224102697        0.00133634944484
