111
 energy: -152.422770463775 gnorm: 0.000034898776 xtb: 6.7.1 (edcfbbe)
C            8.69819116251271        0.71847883346676       -1.24791439445918
C            7.65406281367081        1.77307242928796       -1.62802934063465
C            8.13827731454202        3.13303371438159       -1.10299754781779
C            7.55404399116122        1.81288945884258       -3.16036973713524
C            6.28031107808638        1.47391366193799       -1.04319093158593
C            5.22347527008051        2.35417200522447       -1.31153353647441
C            3.94736955065725        2.16966299302210       -0.81791516179134
C            3.71381126517071        1.06630044659529       -0.01208931591786
C            4.75226559362815        0.14982595512268        0.25098945742915
C            6.02645899994552        0.35909488541258       -0.26047908364239
C            4.18029584007933       -0.89677606541548        1.05494011637311
C            4.70505415734713       -2.04366524682669        1.62940757182057
C            3.89434605886759       -2.87612519786371        2.39065452524715
C            4.49214445158539       -4.13835198682956        2.99888516586697
C            3.47077506035686       -4.95997913316443        3.79147554079291
C            5.04162136383512       -5.02572403791590        1.87155938588090
C            5.63091162594502       -3.74564191593577        3.95198844271634
C            2.55763787209559       -2.51268540980561        2.57611987342333
C            2.00799394224076       -1.37308110970683        2.01555107254963
C            2.81857226281491       -0.56944705786922        1.23205189036758
N            2.54410187118998        0.62235588010908        0.58177667161747
C            1.30853567906022        1.26976130535805        0.53054670965226
C            1.21954349728351        2.63280659804253        0.78879286054228
C           -0.00904349177009        3.28563581314420        0.70643888880899
C           -0.03160297253369        4.73626251370155        0.99418202061018
O            0.82099434079301        5.26377050202933        1.69147881213120
C           -1.12171572385950        5.56116481491684        0.39746688892529
C           -1.43943947256360        6.78726120621566        0.98240087427653
C           -2.42875085137442        7.56404248788008        0.40289897945391
C           -3.05633037156728        7.09564672251413       -0.74099738738647
C           -2.66212513667130        5.86419743313716       -1.25058865922827
N           -1.72545700843449        5.11536321089392       -0.70202788316578
C           -1.15975995454778        2.56600339301665        0.40199940140508
C           -1.07949783586045        1.19425142680258        0.17651250679423
N           -2.23536114110636        0.46601997192175       -0.11234547999846
C           -3.43861473058256        0.55249502109027        0.56815399202815
C           -3.78645343505366        1.28693023800607        1.68923352045536
C           -5.07116610257227        1.15803279492228        2.18756262276809
C           -6.02248510295226        0.31068090898433        1.61326643638649
C           -7.43775558378452        0.17698239497826        2.16057830743368
C           -7.67302584978585       -1.27811813654372        2.59316913014278
C           -8.43884444809793        0.55970548218152        1.05996913572677
C           -7.69693138631662        1.07941097841532        3.37093260678051
C           -5.65107383283421       -0.44414448089852        0.50770377465689
C           -4.37177758210635       -0.33308154224278       -0.01282367430773
C           -3.69619189842383       -0.98048882124267       -1.10543156835318
C           -4.09663245645536       -1.92131631351019       -2.04070527167529
C           -3.20882551180633       -2.35604214888783       -3.01669346687214
C           -3.66841788754952       -3.40300460920312       -4.02310340125944
C           -4.86246609429813       -2.84876343965222       -4.81464862258151
C           -4.09076740379464       -4.67150180602432       -3.26629191313631
C           -2.57435135520624       -3.79103496824618       -5.02252705771302
C           -1.92565843077989       -1.80312482010801       -3.03956584413433
C           -1.50015009012713       -0.86161404890560       -2.11879643098922
C           -2.38367393297404       -0.46201100477218       -1.13053380743608
C            0.15394996031233        0.55095689513706        0.23081360263112
H            8.82479143863578        0.66432922783515       -0.16892766752025
H            8.41861232186561       -0.26257883131939       -1.62537851299900
H            9.65826912321115        0.98548680450185       -1.68553217346074
H            7.46496505536409        3.93436311310964       -1.39507234747953
H            8.19670817013226        3.11736550330333       -0.01621006221844
H            9.12666192386046        3.35753081949913       -1.49906914313161
H            8.53476443368281        1.99594783902959       -3.59481265021774
H            6.88268859004233        2.59925714969450       -3.49433493730065
H            7.18047407255677        0.86271476906588       -3.53745190325563
H            5.39949078994374        3.21882500872555       -1.93334006389258
H            3.15925562693740        2.86521961998622       -1.06580525248076
H            6.79593155322849       -0.36100281539729       -0.03793330386861
H            5.74874773935852       -2.27164158519312        1.47799280553985
H            2.64796949686744       -5.28000244018850        3.15602470691238
H            3.95394563363862       -5.85059014952028        4.18903032560124
H            3.07524833256757       -4.39138285837862        4.63010593694476
H            5.82218111525243       -4.51844888602592        1.31136442709060
H            4.24402862666196       -5.29150769168590        1.18031037746155
H            5.45963927246611       -5.94137867487371        2.28507539763679
H            6.06175192544222       -4.63480728153322        4.40801647021869
H            5.25386044478730       -3.09995860196324        4.74298520797113
H            6.42115658354574       -3.21503768886480        3.42797689874873
H            1.91118989937828       -3.12810541591251        3.17971400127621
H            0.97507613538616       -1.12101191847849        2.20386572267687
H            2.09660823846952        3.19950617817287        1.06147980253029
H           -0.91144898765127        7.09977174052418        1.87031489673590
H           -2.70057594629427        8.51648777277782        0.83331428669669
H           -3.82879465299631        7.66832501924501       -1.22941287662751
H           -3.11568766570724        5.45375290446458       -2.14357665863286
H           -2.11227105459735        3.06200495868808        0.32981205432092
H           -3.07865834603243        1.93916369938525        2.17916159074534
H           -5.32493707595049        1.74072988397174        3.05774017100035
H           -8.67494102760464       -1.39034749504065        3.00271546419343
H           -7.56912525526382       -1.96261172213203        1.75577257586113
H           -6.95316334769254       -1.56414169559752        3.35779011775827
H           -8.34681395013090       -0.09206251232919        0.19557020666591
H           -8.26601044482723        1.58375859121172        0.73409992719035
H           -9.45707636603304        0.48411038685420        1.43633725721670
H           -8.72310963956063        0.94568394650199        3.70816531093933
H           -7.03717840423040        0.82580955975531        4.19772465056516
H           -7.56212388349183        2.12787617268436        3.11432929323330
H           -6.34521198154699       -1.12759606855511        0.04371025863783
H           -5.10504959204177       -2.30277195996941       -1.99754183825595
H           -5.69777110797087       -2.61578027133779       -4.16001707596175
H           -4.57643274768958       -1.93862602532328       -5.33857423762136
H           -5.19775080664883       -3.57897345049730       -5.54851769235319
H           -4.91323195029923       -4.47206977123968       -2.58494852526176
H           -3.25494268864658       -5.05861209488170       -2.68643346803291
H           -4.40899986544130       -5.43934516362738       -3.96865943881740
H           -2.26238307007757       -2.93461814886305       -5.61614637853115
H           -2.95943734424955       -4.54776415685436       -5.70350841208803
H           -1.70829732120692       -4.20788266155991       -4.51314437278191
H           -1.22323209006695       -2.10536922609600       -3.79857974927453
H           -0.50601528592983       -0.44672880936872       -2.19004962281726
H            0.21625940917539       -0.50972267154663        0.04457795457281
