  76
       -117.22129029
 O          7.4262533954        3.1936872968        1.1521889332
 C          7.5232144231        2.0884129935        0.5560306473
 C          8.8102138276        1.6956678167       -0.0419978756
 C          9.2502310258        0.3682389995       -0.0523910805
 C         10.4801310996        0.0482536674       -0.5910402260
 C         11.2974882632        1.0372672500       -1.1188353767
 C         10.8830791558        2.3604611586       -1.0803847047
 C          9.6588289974        2.6911152635       -0.5386270648
 C          6.3866770206        1.2122870126        0.4272467640
 C          5.2548816491        1.4595195396        1.2441582693
 C          4.1367308400        0.6788410871        1.1626357537
 C          4.0742785931       -0.3791524475        0.2407210244
 N          2.9331904846       -1.1777820775        0.1535810605
 C          2.9147826199       -2.5615364681        0.1417338578
 C          3.9693729947       -3.4570724419        0.2357431740
 C          3.6713669948       -4.8084971128        0.2327752739
 C          2.3578711836       -5.2615638347        0.1451839419
 C          1.2999845170       -4.3728393119        0.0754669229
 C          1.5747194926       -3.0134917567        0.0806721437
 C          0.7507974455       -1.8354691533        0.0542275831
 C         -0.6115866469       -1.6320436088       -0.0067812311
 C         -1.1139170548       -0.3265169242       -0.0173718125
 C         -2.5479517347       -0.0879410999       -0.0481640771
 C         -3.1131640790        1.0200496383        0.6000190450
 C         -4.4689883355        1.2398106739        0.5923855740
 C         -5.3300597211        0.3618331423       -0.0785131538
 N         -6.7015340771        0.5788442235       -0.0874101573
 C         -7.2142142160        1.8828687660       -0.0661136391
 C         -8.3540291767        2.1767545732        0.6828949154
 C         -8.8625542297        3.4607648332        0.6958860730
 C         -8.2447540928        4.4670021929       -0.0297507072
 C         -7.1117125361        4.1795476709       -0.7743243956
 C         -6.5972053034        2.8980399991       -0.7977992729
 C         -7.5905799851       -0.5042927143       -0.1139380602
 C         -8.7593272819       -0.4343293583       -0.8727131716
 C         -9.6378022740       -1.4997535917       -0.8916321812
 C         -9.3651586158       -2.6461948867       -0.1619946795
 C         -8.2053980187       -2.7198085630        0.5931426357
 C         -7.3220956304       -1.6585052265        0.6226018160
 C         -4.7745893804       -0.7417092075       -0.7393948540
 C         -3.4188311150       -0.9600581625       -0.7178133027
 C         -0.2093577475        0.7575885702       -0.0018223570
 C          1.1519846167        0.5762425567        0.0450716607
 C          1.6420752704       -0.7273256668        0.1012576185
 C          5.1655950999       -0.6019234337       -0.6135581723
 C          6.2861579924        0.1816322025       -0.5349771314
 H          8.6411575931       -0.4026912749        0.3947882004
 H         10.8109720816       -0.9807593084       -0.5904085232
 H         12.2568979091        0.7794249729       -1.5420291476
 H         11.5214590364        3.1385326715       -1.4737789917
 H          9.3294119427        3.7180719470       -0.4983085581
 H          5.3209649716        2.2670281776        1.9565993346
 H          3.3056655836        0.8418985517        1.8333001434
 H          4.9879733897       -3.1121179645        0.3224823054
 H          4.4745275919       -5.5260248377        0.3064821434
 H          2.1648600831       -6.3237460458        0.1444247604
 H          0.2811483804       -4.7260090724        0.0260005560
 H         -1.2836111766       -2.4766987551       -0.0125377717
 H         -2.4762834152        1.6908838795        1.1563966323
 H         -4.8838852776        2.0816233196        1.1274276987
 H         -8.8281925541        1.3949038712        1.2583752072
 H         -9.7422121123        3.6776954940        1.2829636292
 H         -8.6445102215        5.4690947632       -0.0156388525
 H         -6.6293531134        4.9563629278       -1.3483382158
 H         -5.7232471078        2.6696944912       -1.3906236795
 H         -8.9644919936        0.4551501567       -1.4506652827
 H        -10.5365654975       -1.4375753867       -1.4864886176
 H        -10.0536091795       -3.4768513522       -0.1811582959
 H         -7.9906796635       -3.6066974009        1.1701639013
 H         -6.4253190406       -1.7083647215        1.2232117027
 H         -5.4223606288       -1.4106157027       -1.2872573525
 H         -3.0143985768       -1.7989863126       -1.2635181272
 H         -0.5999390926        1.7613465257       -0.0700457333
 H          1.8252367682        1.4191562681        0.0205223963
 H          5.0910808635       -1.3692522563       -1.3708624932
 H          7.0859423972        0.0337422338       -1.2432087469
