90
 energy: -137.265565401109 gnorm: 0.000050737337 xtb: 6.7.1 (edcfbbe)
C            0.01358913739541       -5.49571436855581        1.33610239144144
C           -1.19745464099557       -4.89276212999994        1.11270508730061
C           -1.27952415041140       -3.58892054759165        0.53699221273388
C           -2.52814818480206       -2.95705095551241        0.30657798945685
C           -3.75215365210845       -3.71900010805399        0.24542072011830
C           -4.96589882317907       -3.14910610740689        0.05262992000332
C           -5.06528097255477       -1.73482410751727       -0.07453121028173
C           -3.84927137534046       -0.95673146851737       -0.02497164349709
C           -2.63854991775341       -1.53107088257945        0.13919261656573
C           -4.18682599756586        0.51065078184961       -0.16006005385108
C           -3.74539501707860        1.34957543530026        1.01702077657297
C           -4.04231766984274        1.17642572459800        2.35174281951930
C           -3.53034156897300        2.08618998313349        3.26745767884480
C           -2.74076713689791        3.14746922308045        2.84886926781796
C           -2.44264158652131        3.32674755131757        1.50743441597372
C           -2.94747726783168        2.42108460099076        0.58817724957728
C           -2.80806393349443        2.34219929707838       -0.85731283693220
C           -2.14452227833342        3.16072000230531       -1.75667408162317
C           -2.18114233085588        2.83484173819594       -3.10287251031755
C           -2.86440143889243        1.71154456502933       -3.54557124766306
C           -3.53934818476386        0.89142666421612       -2.65108313363072
C           -3.50910176554599        1.21443477718536       -1.31143668424779
C           -5.69048666149328        0.47311218857852       -0.31084538073140
C           -6.55844362048713        1.51509725255462       -0.48310538446914
C           -7.92627333083682        1.24235105928495       -0.59432101774535
C           -8.39956971881176       -0.07346889730457       -0.53233847502548
C           -7.54464160604642       -1.13324523652127       -0.36103269621467
C           -6.15766988651652       -0.87944272412726       -0.24777112553037
C           -0.04831790761885       -2.96414002851584        0.20708905667290
C            1.16762747224445       -3.58287203041518        0.40603346947377
C            2.42231944334590       -2.92938479453376        0.00832973891369
C            3.44498622350182       -3.68000782972559       -0.57782894364281
C            4.64393075034652       -3.10396373390667       -0.95429514064863
C            4.82959777844279       -1.74714796434908       -0.73843427239578
C            3.80444777145922       -0.98470458301787       -0.15622943189435
C            2.61116327726541       -1.55894171178273        0.21413412540084
C            4.22926896215918        0.45890782043996       -0.02484593149929
C            4.17062644118082        0.98883806379088        1.38802697708272
C            4.80567808924318        0.50497910626052        2.51115878508756
C            4.60909522047422        1.16348950192228        3.71818140675263
C            3.79209987715399        2.28197921498766        3.79235361478599
C            3.15238531527142        2.77196494255599        2.66462076559614
C            3.34520779134487        2.12118932113913        1.45677562371896
C            2.82562375565006        2.39486740532083        0.12562886135001
C            1.99278854108829        3.39798161700565       -0.34278779708900
C            1.67013006607107        3.41726928355105       -1.69029002294250
C            2.16132796462191        2.45075531742277       -2.55502634588161
C            2.99797884828477        1.44336591570105       -2.09316322949934
C            3.32638307092834        1.42504900450948       -0.75506030057205
C            5.62802565279006        0.42300407385872       -0.59530811023528
C            6.52172498185296        1.46177596364352       -0.73678283828646
C            7.76386722950329        1.19481726569937       -1.29847602959675
C            8.09774417206814       -0.08807003782212       -1.70798978642881
C            7.20098802004112       -1.13524886373210       -1.56907181272347
C            5.95937377426705       -0.87624752517688       -1.00946875990480
C            1.20243238810280       -4.86437255786460        0.98735843799126
H            0.04797002944080       -6.47436990121643        1.79427576062949
H           -2.09795681142791       -5.39597269366368        1.42569283176923
H           -3.68775834360568       -4.79383765414439        0.30983673452293
H           -5.85929114440875       -3.75258922232547       -0.01077570367378
H           -1.75404525739877       -0.91543335018326        0.19800318387502
H           -4.65939786025482        0.35167472941696        2.67852129199470
H           -3.75071282962305        1.96629975012332        4.31832759269589
H           -2.35528812419788        3.84360117241155        3.58003622515959
H           -1.83162268841911        4.15700340363526        1.18624779974026
H           -1.61331427724502        4.03637119399626       -1.41574157891860
H           -1.67232942645517        3.46328226416623       -3.81954012062139
H           -2.87660629908639        1.47465751317579       -4.59961367198387
H           -4.07841839912366        0.02157066466181       -2.99823131670436
H           -6.19998161018317        2.53367290195590       -0.53078399250516
H           -8.62376548752325        2.05497239038946       -0.72883564657692
H           -9.46213871364477       -0.25070902356391       -0.62166905044121
H           -7.91342853851319       -2.14672385632679       -0.31421216601345
H           -0.06201211839293       -2.00231013274884       -0.28225269475550
H            3.28448013058223       -4.73294672204906       -0.75879489779827
H            5.41931763632323       -3.70251970171932       -1.40926752576550
H            1.83744180139215       -0.96626048045995        0.68103125237524
H            5.44228995671461       -0.36646516222227        2.45441713107190
H            5.09880820901527        0.79972146522749        4.60983840861355
H            3.65382504306922        2.77759884173808        4.74262704482856
H            2.51732319259939        3.64328420408196        2.72775267919019
H            1.61036729579833        4.15379476461206        0.32701776731952
H            1.02854071396674        4.19595517221374       -2.07559236090285
H            1.89484011783439        2.48372929564306       -3.60133991577975
H            3.38595035150584        0.69376458031856       -2.76809232718567
H            6.26277853247070        2.46140096924495       -0.41811640062573
H            8.47854277017177        1.99627277405596       -1.41700916738397
H            9.07027378623151       -0.27151462627449       -2.14185224438293
H            7.46524394116360       -2.13225112476876       -1.88955780649776
H            2.14951454894879       -5.34194370003274        1.18444986285195
