90
 energy: -137.365119624313 gnorm: 0.000018981254 xtb: 6.7.1 (edcfbbe)
C            0.00020542986846       -2.69638372024567        0.00027996024017
C           -1.15862350899735       -2.00973791768030        0.31424317935754
C           -1.16783755594033       -0.61632257760199        0.32525440184617
C           -2.38954832603170        0.12132730663083        0.68237187527236
C           -2.32118091783427        1.22303170507795        1.53628080056119
C           -3.45552543583273        1.92535600428776        1.90280561012711
C           -4.68199899884301        1.52285143634772        1.39868922117744
C           -4.75533364744479        0.42135794069590        0.53278520834442
C           -3.62799845545673       -0.28134131040363        0.17653770855098
C           -6.18331757761150        0.17540215258612        0.10591944185938
C           -6.38254732924479        0.23492701034791       -1.39044757816848
C           -6.10512018047090        1.27544336629498       -2.25021754501582
C           -6.37899770835275        1.10837166711101       -3.60152807968027
C           -6.92052552313627       -0.07746564071363       -4.07537115251473
C           -7.19958961662949       -1.12658588982701       -3.21363582997368
C           -6.92775924099276       -0.96741397414751       -1.86436949074688
C           -7.10865166625187       -1.86811477414471       -0.73603466104862
C           -7.60267495684337       -3.16089912920006       -0.66899546766983
C           -7.66076132369813       -3.78621336373534        0.56666362637702
C           -7.23434380000796       -3.13509308146472        1.71484471127464
C           -6.73717297852450       -1.83953327631248        1.65502062298497
C           -6.67819323285089       -1.21456223087066        0.42823625121235
C           -6.91894203016176        1.26710934699914        0.84731240821478
C           -8.26920670350322        1.54105924552423        0.84846727893301
C           -8.72777673133625        2.60822054802373        1.61021879340643
C           -7.84731924923670        3.38091237781392        2.35302673812154
C           -6.48826242811763        3.10912380097222        2.35369584217650
C           -6.02363296820040        2.04606962003204        1.59583725446862
C           -0.00005843000032        0.06587291798342        0.00076597103082
C            1.16784759582716       -0.61597451641354       -0.32402019740940
C            2.38939610913362        0.12202430459918       -0.68094742614866
C            2.32071566436681        1.22439169112047       -1.53398246119515
C            3.45488907024971        1.92713744008930       -1.90022617601840
C            4.68154316538895        1.52435000910394       -1.39677332818887
C            4.75521536169217        0.42209250236096       -0.53187399109925
C            3.62804260114279       -0.28097398229506       -0.17584953007878
C            6.18336021208048        0.17578491995176       -0.10574208040479
C            6.67821832940002       -1.21368250861530       -0.43027332011468
C            6.73701318657120       -1.83674829997562       -1.65803362447727
C            7.23422776340365       -3.13219120000303       -1.71994186843455
C            7.66085151092197       -3.78506725255987       -0.57283577622631
C            7.60294511976988       -3.16166872342382        0.66380031981049
C            7.10890709531805       -1.86899792464144        0.73291766172101
C            6.92827203587732       -0.96998551201022        1.86264221061784
C            7.20036934636899       -1.13119066935050        3.21161291453476
C            6.92154953784052       -0.08334406405919        4.07497749081567
C            6.38002039904486        1.10324456199929        3.60301871224153
C            6.10586208570800        1.27234953835517        2.25201701820213
C            6.38303032496754        0.23309855572165        1.39063385611792
C            6.91862563711283        1.26847938699324       -0.84601725565983
C            8.26883234070159        1.54271472208744       -0.84706482819189
C            8.72708858536785        2.61071213031181       -1.60783280862212
C            7.84637899781092        3.38391720552527       -2.34980896705140
C            6.48737693466495        3.11185221121688       -2.35057028512989
C            6.02305525714031        2.04797773564171       -1.59367245965531
C            1.15888443234551       -2.00940062264760       -0.31349238428150
H            0.00031574726528       -3.77715244623404        0.00010751451508
H           -2.05604787025009       -2.55230768393136        0.57412980330884
H           -1.36112876656333        1.51711928863427        1.93565993721268
H           -3.38321810580383        2.76952858312178        2.57267323826449
H           -3.69327497930030       -1.12133154308717       -0.50011379484945
H           -5.68486918095401        2.20031343525168       -1.88160748905691
H           -6.16877945700794        1.91287599727775       -4.29138505259215
H           -7.12707358536683       -0.18402190105965       -5.13071123491201
H           -7.62106716430204       -2.04804411907579       -3.58757496855907
H           -7.93554530664536       -3.67207531538785       -1.56032334315773
H           -8.04377622605476       -4.79418195648227        0.63775465302087
H           -7.28918531782109       -3.64151191350322        2.66760819916781
H           -6.40498076205138       -1.33344054641112        2.55022994267129
H           -8.95603975104583        0.93996221068493        0.26992906971894
H           -9.78324457570040        2.83845360786329        1.62414806582841
H           -8.22742899477923        4.20558668128343        2.93885053266707
H           -5.80672166571055        3.71390263990893        2.93357845590947
H           -0.00017544643468        1.14634040571077        0.00098902739214
H            1.36054195873236        1.51869507003438       -1.93290941397486
H            3.38230296283432        2.77188040585396       -2.56934601680677
H            3.69361267396919       -1.12148453327924        0.50012520886752
H            6.40465605032551       -1.32927942670850       -2.55240258380093
H            7.28895991082564       -3.63712849860134       -2.67349791229783
H            8.04390069291754       -4.79290504838172       -0.64555804315765
H            7.93599629543750       -3.67421190599269        1.55427404898512
H            7.62185232263919       -2.05323691050667        3.58409173332768
H            7.12830753849846       -0.19149466812915        5.13011390404177
H            6.17003275913515        1.90674559068715        4.29411392713081
H            5.68560182324678        2.19779601684003        1.88486476125054
H            8.95585365214266        0.94119364335393       -0.26919112160439
H            9.78250119768528        2.84120803638016       -1.62163453245659
H            8.22625263776341        4.20922090306466       -2.93489875055811
H            5.80564822712410        3.71703568023240       -2.92980972670781
H            2.05639309672553       -2.55172297893318       -0.57360055512764
