90
 energy: -137.364988500821 gnorm: 0.000057746804 xtb: 6.7.1 (edcfbbe)
C            0.00595107229774       -5.28655346941980        1.59566527947817
C           -1.20537974311295       -4.69000952748966        1.29848497803348
C           -1.24864225948127       -3.49762875392874        0.57655022613611
C           -2.53866805779089       -2.87914619466963        0.23371291602521
C           -3.62080151912396       -3.68123811703830       -0.13473300641407
C           -4.85020841800918       -3.13752583240340       -0.46002714040253
C           -5.00289145714636       -1.76103983771022       -0.41829161110161
C           -3.91739167380368       -0.94748868668870       -0.05973307298887
C           -2.69621423629767       -1.49062856597659        0.26624236606665
C           -4.31147078396094        0.50995166246765       -0.10487889623270
C           -4.08448815749608        1.25450909759421        1.18840181952740
C           -4.58866533249108        0.97137775225131        2.43921137958294
C           -4.24924809328654        1.80795942152299        3.49474465469233
C           -3.42104196605878        2.90265765685702        3.29565014362547
C           -2.91295968306976        3.19116155703885        2.03873963792386
C           -3.24919563419598        2.36246473586379        0.98059586915666
C           -2.88629807841070        2.40926507673516       -0.42763018446106
C           -2.10708978257015        3.30441698552208       -1.14214592376026
C           -1.93870188960843        3.09923940010616       -2.50215964578733
C           -2.53032438378883        2.01852906789505       -3.13871221886039
C           -3.31641771762966        1.11945583305011       -2.42992609565785
C           -3.49090888621351        1.32406660783986       -1.07848651169013
C           -5.76604858200833        0.42487088171871       -0.50594736966818
C           -6.66337458477875        1.45299657891112       -0.69584888644242
C           -7.96166131078528        1.13700180913181       -1.07503094559396
C           -8.34616414321586       -0.18268366129061       -1.26162952932624
C           -7.44611955191240       -1.21943656259505       -1.07248053305738
C           -6.14948780209075       -0.91151581292226       -0.69258852502000
C           -0.04963666030273       -2.91530875209395        0.17549414814144
C            1.17286011809652       -3.51334744061510        0.46204109500687
C            2.43177419546518       -2.89644182147092        0.01365912551673
C            3.41538594746008       -3.67732367558591       -0.59403199449629
C            4.60661434325167       -3.12696345932420       -1.03256526795247
C            4.82288384335741       -1.77090053779728       -0.84661893451875
C            3.84279993595650       -0.98360553380642       -0.22340484848286
C            2.65206983834571       -1.52946385690417        0.19713736434833
C            4.30957942669834        0.44799445484136       -0.10482685555192
C            4.38907138466368        0.93099050162115        1.32536564065096
C            5.10796235416943        0.39457154747905        2.37137986107951
C            5.03656595571857        1.01631436733460        3.61133976613087
C            4.25916290116945        2.15054897553660        3.79331050795644
C            3.53492192462441        2.69268687679013        2.74324180013625
C            3.60214412283696        2.07826536662033        1.50315866892070
C            2.97200144637827        2.40617354784114        0.23348953876045
C            2.11775751406863        3.43685076461327       -0.12290804542591
C            1.67148143904074        3.50577605145557       -1.43292502818377
C            2.06253701014823        2.56100932995438       -2.36959422215727
C            2.91889289981409        1.52524252992175       -2.01976009286035
C            3.37092023251100        1.45734229371662       -0.71976036285923
C            5.66230106302883        0.38838721180716       -0.77558463895457
C            6.55981026516074        1.41247202095592       -0.98564659867172
C            7.75859065977152        1.12175816409631       -1.62413025848985
C            8.04806116529721       -0.17021140248673       -2.03787150992017
C            7.14811807123163       -1.20304221931602       -1.82758107002342
C            5.94891998004362       -0.91977584600930       -1.19360237334554
C            1.19031312968714       -4.71109204864646        1.17341944293997
H            0.02698624414540       -6.20695069166886        2.16174174321469
H           -2.12415267463958       -5.13986668403857        1.64482753587085
H           -3.48675633514001       -4.75196958753366       -0.18581280091726
H           -5.67297474810988       -3.77692986673293       -0.74408696621364
H           -1.87462067245730       -0.85409717760122        0.56205061101696
H           -5.23405931255834        0.11872283114939        2.59529546183640
H           -4.63576990240442        1.60337677756106        4.48268230022881
H           -3.17042540953193        3.53927104138454        4.13212732599936
H           -2.26948896698442        4.04540981862765        1.88836734100827
H           -1.64423663501039        4.14668336956306       -0.65020291505620
H           -1.33899827247516        3.78945207639139       -3.07734745525309
H           -2.38256422991334        1.87661160156657       -4.19956496329440
H           -3.78306836368428        0.28086454380419       -2.92697561208479
H           -6.36439908536668        2.48147053682211       -0.55206761669028
H           -8.68006106381785        1.92937193765705       -1.22752933312259
H           -9.36151988334998       -0.40413924873799       -1.55783178550671
H           -7.75019104820892       -2.24544018220750       -1.21876132767353
H           -0.06681391029842       -2.00410189956198       -0.40567254023083
H            3.22859433401766       -4.73135740908464       -0.74197189888945
H            5.35167894570185       -3.74539574898656       -1.51097415988171
H            1.90400659119473       -0.91809265712235        0.68174339912738
H            5.71434266113987       -0.48877490740882        2.23026838299933
H            5.59418652580898        0.61151231631370        4.44343786286366
H            4.21899052405409        2.61752061160418        4.76703001588044
H            2.93138911585532        3.57624135244957        2.89023171319371
H            1.80900018888116        4.17364361870752        0.60396754504909
H            1.01006553275640        4.30613875780010       -1.72956188259256
H            1.69940412776294        2.63175707750937       -3.38444943309830
H            3.22614146879197        0.79121734076482       -2.75100381935240
H            6.33568075460583        2.41913475795039       -0.66280454573858
H            8.47432800378502        1.91181427195210       -1.79947034425114
H            8.98786197586924       -0.37276409740680       -2.53135137285520
H            7.37801302019484       -2.20739865823838       -2.15166820652220
H            2.13528027446900       -5.17642550627282        1.41319553337360
