  64
  -96.1390608904000       0.583054004858856      !
 C          0.2232608709        1.9904078167        0.9321276799
 C         -0.8970545992        0.9670835816        0.6409454962
 C         -1.3629714002        0.4263292035        1.9965853566
 C         -3.3863910071        1.4750229806       -0.2341881338
 C         -4.0706979257        2.7998521634       -0.1970279067
 C         -5.4500238813        2.6541457858        0.3268600470
 C         -5.8906076888        1.5265508813        0.8781542303
 C         -5.1297427209        0.2279929170        1.0229841564
 C         -3.1946020857       -0.8066750089       -0.3957935857
 N         -2.9735435093       -2.0556258306        0.1728129115
 C         -1.6882623150       -2.4595045118        0.4794787711
 C         -1.5873257089       -3.7587008585        1.0028302900
 C         -0.3782001386       -4.3785336656        1.2150995707
 C          0.7808009050       -3.7182901645        0.8573660011
 C          0.6992855646       -2.4115662745        0.3930994249
 C          1.9405810750       -1.7877369671       -0.0873110179
 O          2.7989069408       -2.3216340974       -0.7567746747
 C          4.1562254415        0.7906485243       -0.5296775979
 C          5.4434539456        1.4059709236       -0.2541970991
 C          5.7946263693        2.1150372296        0.8377084441
 C          4.9935074794        2.2902763296        2.0202994067
 C          4.1801972145        1.3407670356        2.4883648387
 C          4.1267113598        0.0008955951        1.8212660614
 C         -0.5105882020       -1.7056657081        0.2783450411
 C          3.7792281812        0.8642018546       -1.8895717372
 C          3.4264424444        0.2162518841        0.5092321997
 C          2.0645620486       -0.3062159305        0.4539995360
 C          1.0769726674       -0.0388024406       -0.5948081585
 C          1.3560276987        0.2657127855       -1.9401253625
 C          2.5628139442        0.6114661002       -2.5163912310
 S         -0.0841251317        0.0955915216       -2.9510012763
 C         -1.1038093167       -0.2716038112       -1.5774834807
 C         -2.4061783692       -0.5213474292       -1.6173360568
 C         -3.9497190948        0.1947842097        0.0961085385
 C         -2.9838517284        2.5219271137        0.8038043396
 C         -1.9510961265        1.8601125188       -0.0643185655
 C         -0.3731195136       -0.2578825923       -0.2655840653
 H         -0.2353139447        2.8793537605        1.3623973242
 H          0.9544169260        1.6257357102        1.6447122036
 H          0.7447218235        2.2886143104        0.0261018304
 H         -0.6166610872       -0.2598153131        2.3938112831
 H         -1.4740738230        1.2395345593        2.7097982953
 H         -2.3039559623       -0.1074129566        1.9271865525
 H         -3.9060079151        3.5395502770       -0.9737822350
 H         -6.1040292899        3.5115547208        0.2561271725
 H         -6.8991975290        1.4919022400        1.2692600969
 H         -5.8055723082       -0.6048463937        0.8044996330
 H         -3.7178764805       -2.4843072546        0.7036000158
 H         -2.5065233026       -4.2909576124        1.2036570031
 H         -0.3422281438       -5.3814973799        1.6114352147
 H          1.7476677608       -4.1908934725        0.9191314695
 H          6.1246359552        1.4299775851       -1.0960256218
 H          6.7269938053        2.6656555388        0.8100489226
 H          5.0922438355        3.2334423419        2.5411905307
 H          3.5489596387        1.5139586361        3.3480732174
 H          5.1454476804       -0.3540393517        1.6376381044
 H          4.5560826005        1.2164760508       -2.5551456452
 H          3.6015376787       -0.7295536222        2.4361591985
 H          1.6177574259       -0.3203347061        1.4473441362
 H          2.5421460716        0.7494165442       -3.5894184336
 H         -2.9606654914       -0.4923923362       -2.5433849465
 H         -4.8248199788        0.1165288537        2.0743789485
 H         -3.0938704954        2.5074197517        1.8671686690
 H         -1.5033463244        2.4547073020       -0.8592012010
  64
  -96.1387440082000       0.416945995141144      !
 C          0.1614382704        2.0219745129        0.9495548316
 C         -0.9417361886        0.9847649039        0.6465184618
 C         -1.4162453217        0.4414829299        1.9981325347
 C         -3.4291146319        1.4460697914       -0.2621728346
 C         -4.1337070299        2.7606423224       -0.2487412149
 C         -5.5220694569        2.5972846167        0.2450458944
 C         -5.9575290222        1.4679834098        0.7969419634
 C         -5.1767841067        0.1856526281        0.9768087028
 C         -3.2031732833       -0.8338535850       -0.4005041451
 N         -2.9654678578       -2.0714963456        0.1851802161
 C         -1.6757648583       -2.4456432492        0.5118941054
 C         -1.5578285645       -3.7303825857        1.0663797533
 C         -0.3409325286       -4.3281739082        1.2966833044
 C          0.8089774047       -3.6623889352        0.9203213067
 C          0.7089345294       -2.3679458531        0.4271289861
 C          1.9393325080       -1.7392193666       -0.0735127714
 O          2.7883156384       -2.2737104987       -0.7540458656
 C          4.1649764707        0.8173122592       -0.5453159049
 C          5.4955692370        1.3449558837       -0.2932334762
 C          5.9489767976        1.9578807493        0.8186854399
 C          5.2245962629        2.1135596418        2.0522880302
 C          4.3645111857        1.1989727331        2.5048174576
 C          4.1743177908       -0.0888169517        1.7642991898
 C         -0.5081969878       -1.6780896822        0.3015241779
 C          3.7491565593        0.9683465637       -1.8870775188
 C          3.4394296777        0.2352696737        0.4929119936
 C          2.0629176503       -0.2540579966        0.4565970470
 C          1.0621771630        0.0105616149       -0.5807190836
 C          1.3310366887        0.3378256970       -1.9227082565
 C          2.5229621387        0.7316878496       -2.4996913092
 S         -0.1038757250        0.1478743486       -2.9360416361
 C         -1.1127443648       -0.2607555411       -1.5674034067
 C         -2.4085350360       -0.5406574209       -1.6154077342
 C         -3.9799361193        0.1609535663        0.0717090319
 C         -3.0601853709        2.5069391857        0.7733953158
 C         -2.0026699299        1.8569516772       -0.0743301826
 C         -0.3868504129       -0.2331370457       -0.2527590920
 H         -0.3118970950        2.9033359499        1.3794762534
 H          0.8906646999        1.6617205261        1.6669051646
 H          0.6865395086        2.3299636177        0.0489759105
 H         -2.3467801339       -0.1089272975        1.9194166555
 H         -0.6628707090       -0.2283331300        2.4095482895
 H         -1.5523101683        1.2568114505        2.7046650491
 H         -3.9646690319        3.4960301865       -1.0287110394
 H         -6.1889039886        3.4421842048        0.1480019633
 H         -6.9750415340        1.4198085890        1.1627364948
 H         -5.8329819935       -0.6626574177        0.7581388636
 H         -3.7057748917       -2.4996290068        0.7223729536
 H         -2.4700354152       -4.2701775784        1.2787281181
 H         -0.2916200303       -5.3197169739        1.7192094837
 H          1.7818402821       -4.1214865298        0.9899196064
 H          6.1389069833        1.3754501245       -1.1642818933
 H          6.9165379621        2.4427334722        0.7728581494
 H          5.4242076136        3.0096451675        2.6246992105
 H          3.7952209739        1.3609407963        3.4087177987
 H          5.1539404301       -0.5101049196        1.5159295701
 H          4.5094193172        1.3514708648       -2.5548203972
 H          3.6220879495       -0.8115535271        2.3647022038
 H          1.6302422715       -0.2590306403        1.4566551544
 H          2.4820844506        0.9119358319       -3.5659646519
 H         -2.9566944864       -0.5200140737       -2.5455103693
 H         -4.8899971547        0.0957507139        2.0353091873
 H         -3.1872348942        2.4989032063        1.8349419440
 H         -1.5558244974        2.4552142826       -0.8671035380
