  64
  -96.5822168000000       0.376198659203315      !
 C          0.2232608709        1.9904078167        0.9321276799
 C         -0.8970545992        0.9670835816        0.6409454962
 C         -1.3629714002        0.4263292035        1.9965853566
 C         -3.3863910071        1.4750229806       -0.2341881338
 C         -4.0706979257        2.7998521634       -0.1970279067
 C         -5.4500238813        2.6541457858        0.3268600470
 C         -5.8906076888        1.5265508813        0.8781542303
 C         -5.1297427209        0.2279929170        1.0229841564
 C         -3.1946020857       -0.8066750089       -0.3957935857
 N         -2.9735435093       -2.0556258306        0.1728129115
 C         -1.6882623150       -2.4595045118        0.4794787711
 C         -1.5873257089       -3.7587008585        1.0028302900
 C         -0.3782001386       -4.3785336656        1.2150995707
 C          0.7808009050       -3.7182901645        0.8573660011
 C          0.6992855646       -2.4115662745        0.3930994249
 C          1.9405810750       -1.7877369671       -0.0873110179
 O          2.7989069408       -2.3216340974       -0.7567746747
 C          4.1562254415        0.7906485243       -0.5296775979
 C          5.4434539456        1.4059709236       -0.2541970991
 C          5.7946263693        2.1150372296        0.8377084441
 C          4.9935074794        2.2902763296        2.0202994067
 C          4.1801972145        1.3407670356        2.4883648387
 C          4.1267113598        0.0008955951        1.8212660614
 C         -0.5105882020       -1.7056657081        0.2783450411
 C          3.7792281812        0.8642018546       -1.8895717372
 C          3.4264424444        0.2162518841        0.5092321997
 C          2.0645620486       -0.3062159305        0.4539995360
 C          1.0769726674       -0.0388024406       -0.5948081585
 C          1.3560276987        0.2657127855       -1.9401253625
 C          2.5628139442        0.6114661002       -2.5163912310
 S         -0.0841251317        0.0955915216       -2.9510012763
 C         -1.1038093167       -0.2716038112       -1.5774834807
 C         -2.4061783692       -0.5213474292       -1.6173360568
 C         -3.9497190948        0.1947842097        0.0961085385
 C         -2.9838517284        2.5219271137        0.8038043396
 C         -1.9510961265        1.8601125188       -0.0643185655
 C         -0.3731195136       -0.2578825923       -0.2655840653
 H         -0.2353139447        2.8793537605        1.3623973242
 H          0.9544169260        1.6257357102        1.6447122036
 H          0.7447218235        2.2886143104        0.0261018304
 H         -0.6166610872       -0.2598153131        2.3938112831
 H         -1.4740738230        1.2395345593        2.7097982953
 H         -2.3039559623       -0.1074129566        1.9271865525
 H         -3.9060079151        3.5395502770       -0.9737822350
 H         -6.1040292899        3.5115547208        0.2561271725
 H         -6.8991975290        1.4919022400        1.2692600969
 H         -5.8055723082       -0.6048463937        0.8044996330
 H         -3.7178764805       -2.4843072546        0.7036000158
 H         -2.5065233026       -4.2909576124        1.2036570031
 H         -0.3422281438       -5.3814973799        1.6114352147
 H          1.7476677608       -4.1908934725        0.9191314695
 H          6.1246359552        1.4299775851       -1.0960256218
 H          6.7269938053        2.6656555388        0.8100489226
 H          5.0922438355        3.2334423419        2.5411905307
 H          3.5489596387        1.5139586361        3.3480732174
 H          5.1454476804       -0.3540393517        1.6376381044
 H          4.5560826005        1.2164760508       -2.5551456452
 H          3.6015376787       -0.7295536222        2.4361591985
 H          1.6177574259       -0.3203347061        1.4473441362
 H          2.5421460716        0.7494165442       -3.5894184336
 H         -2.9606654914       -0.4923923362       -2.5433849465
 H         -4.8248199788        0.1165288537        2.0743789485
 H         -3.0938704954        2.5074197517        1.8671686690
 H         -1.5033463244        2.4547073020       -0.8592012010
  64
  -96.5822132700000       0.374796017640809      !
 C          0.2203306547        1.9913249421        0.9333087800
 C         -0.8993787255        0.9677594901        0.6407089912
 C         -1.3662451857        0.4270949217        1.9960361252
 C         -3.3885983189        1.4729815731       -0.2371000709
 C         -4.0733110025        2.7976599651       -0.2030579580
 C         -5.4536259830        2.6523048447        0.3183452363
 C         -5.8953163758        1.5251234504        0.8695555581
 C         -5.1350899307        0.2264689656        1.0167040055
 C         -3.1948697482       -0.8083833854       -0.3955764200
 N         -2.9721363957       -2.0559362746        0.1755187518
 C         -1.6865778530       -2.4569705194        0.4852534592
 C         -1.5851418151       -3.7533178551        1.0154304385
 C         -0.3757936389       -4.3714170417        1.2313317493
 C          0.7828424897       -3.7129258489        0.8693086413
 C          0.7007686993       -2.4086404517        0.3983597201
 C          1.9421356058       -1.7872003649       -0.0853346457
 O          2.7981902987       -2.3240236491       -0.7552664127
 C          4.1548747520        0.8014882344       -0.5349032059
 C          5.4404270443        1.4190765928       -0.2579717808
 C          5.7958351140        2.1133405587        0.8422913938
 C          5.0043822962        2.2667915610        2.0340648049
 C          4.1967542431        1.3081957831        2.4934998441
 C          4.1395552340       -0.0205278097        1.8051141167
 C         -0.5091471050       -1.7034289616        0.2811845224
 C          3.7729730603        0.8851546710       -1.8927050251
 C          3.4306986219        0.2148621693        0.5011757049
 C          2.0669850773       -0.3044333331        0.4499128370
 C          1.0767023016       -0.0348450025       -0.5958836622
 C          1.3535055172        0.2710359994       -1.9412065504
 C          2.5570896840        0.6269065284       -2.5181778174
 S         -0.0863972868        0.0963130084       -2.9515417900
 C         -1.1040971160       -0.2723093834       -1.5771764453
 C         -2.4061943865       -0.5232589795       -1.6167565622
 C         -3.9521907971        0.1929158987        0.0935991804
 C         -2.9879574145        2.5212249072        0.7999559884
 C         -1.9535966618        1.8591832746       -0.0661766623
 C         -0.3729398418       -0.2566607859       -0.2654761493
 H         -0.2390197606        2.8808264826        1.3615955070
 H          0.9494158913        1.6266870457        1.6482259401
 H          0.7442964115        2.2884321129        0.0283706542
 H         -2.3060769231       -0.1085844461        1.9258857089
 H         -0.6190215132       -0.2569462686        2.3952004948
 H         -1.4803193842        1.2408779589        2.7081508844
 H         -3.9074012441        3.5363791218       -0.9804592280
 H         -6.1073586445        3.5098148229        0.2459914902
 H         -6.9046332006        1.4908718020        1.2589203389
 H         -5.8104873968       -0.6060352869        0.7953771635
 H         -3.7161360994       -2.4825526883        0.7085227665
 H         -2.5041678859       -4.2846226535        1.2196806495
 H         -0.3391578078       -5.3720518333        1.6332647714
 H          1.7497701103       -4.1852677501        0.9325794216
 H          6.1158648065        1.4602524873       -1.1036218987
 H          6.7250762103        2.6684646533        0.8159018273
 H          5.1067783343        3.2006254089        2.5703640423
 H          3.5734934903        1.4657262583        3.3619223226
 H          5.1570485588       -0.3719846310        1.6088105075
 H          4.5454146300        1.2481192124       -2.5578795207
 H          3.6187532144       -0.7613410863        2.4111361597
 H          1.6234734199       -0.3152085785        1.4449327422
 H          2.5335933361        0.7693704063       -3.5906044580
 H         -2.9607319604       -0.4944712526       -2.5428083971
 H         -4.8341287379        0.1143949373        2.0691843482
 H         -3.0995999885        2.5081143578        1.8631706416
 H         -1.5057146960        2.4535361745       -0.8611823001
  64
  -96.5818268500000       0.249005323155876      !
 C          0.1614382704        2.0219745129        0.9495548316
 C         -0.9417361886        0.9847649039        0.6465184618
 C         -1.4162453217        0.4414829299        1.9981325347
 C         -3.4291146319        1.4460697914       -0.2621728346
 C         -4.1337070299        2.7606423224       -0.2487412149
 C         -5.5220694569        2.5972846167        0.2450458944
 C         -5.9575290222        1.4679834098        0.7969419634
 C         -5.1767841067        0.1856526281        0.9768087028
 C         -3.2031732833       -0.8338535850       -0.4005041451
 N         -2.9654678578       -2.0714963456        0.1851802161
 C         -1.6757648583       -2.4456432492        0.5118941054
 C         -1.5578285645       -3.7303825857        1.0663797533
 C         -0.3409325286       -4.3281739082        1.2966833044
 C          0.8089774047       -3.6623889352        0.9203213067
 C          0.7089345294       -2.3679458531        0.4271289861
 C          1.9393325080       -1.7392193666       -0.0735127714
 O          2.7883156384       -2.2737104987       -0.7540458656
 C          4.1649764707        0.8173122592       -0.5453159049
 C          5.4955692370        1.3449558837       -0.2932334762
 C          5.9489767976        1.9578807493        0.8186854399
 C          5.2245962629        2.1135596418        2.0522880302
 C          4.3645111857        1.1989727331        2.5048174576
 C          4.1743177908       -0.0888169517        1.7642991898
 C         -0.5081969878       -1.6780896822        0.3015241779
 C          3.7491565593        0.9683465637       -1.8870775188
 C          3.4394296777        0.2352696737        0.4929119936
 C          2.0629176503       -0.2540579966        0.4565970470
 C          1.0621771630        0.0105616149       -0.5807190836
 C          1.3310366887        0.3378256970       -1.9227082565
 C          2.5229621387        0.7316878496       -2.4996913092
 S         -0.1038757250        0.1478743486       -2.9360416361
 C         -1.1127443648       -0.2607555411       -1.5674034067
 C         -2.4085350360       -0.5406574209       -1.6154077342
 C         -3.9799361193        0.1609535663        0.0717090319
 C         -3.0601853709        2.5069391857        0.7733953158
 C         -2.0026699299        1.8569516772       -0.0743301826
 C         -0.3868504129       -0.2331370457       -0.2527590920
 H         -0.3118970950        2.9033359499        1.3794762534
 H          0.8906646999        1.6617205261        1.6669051646
 H          0.6865395086        2.3299636177        0.0489759105
 H         -2.3467801339       -0.1089272975        1.9194166555
 H         -0.6628707090       -0.2283331300        2.4095482895
 H         -1.5523101683        1.2568114505        2.7046650491
 H         -3.9646690319        3.4960301865       -1.0287110394
 H         -6.1889039886        3.4421842048        0.1480019633
 H         -6.9750415340        1.4198085890        1.1627364948
 H         -5.8329819935       -0.6626574177        0.7581388636
 H         -3.7057748917       -2.4996290068        0.7223729536
 H         -2.4700354152       -4.2701775784        1.2787281181
 H         -0.2916200303       -5.3197169739        1.7192094837
 H          1.7818402821       -4.1214865298        0.9899196064
 H          6.1389069833        1.3754501245       -1.1642818933
 H          6.9165379621        2.4427334722        0.7728581494
 H          5.4242076136        3.0096451675        2.6246992105
 H          3.7952209739        1.3609407963        3.4087177987
 H          5.1539404301       -0.5101049196        1.5159295701
 H          4.5094193172        1.3514708648       -2.5548203972
 H          3.6220879495       -0.8115535271        2.3647022038
 H          1.6302422715       -0.2590306403        1.4566551544
 H          2.4820844506        0.9119358319       -3.5659646519
 H         -2.9566944864       -0.5200140737       -2.5455103693
 H         -4.8899971547        0.0957507139        2.0353091873
 H         -3.1872348942        2.4989032063        1.8349419440
 H         -1.5558244974        2.4552142826       -0.8671035380
