75
 energy: -113.262402239950 gnorm: 0.000033396085 xtb: 6.7.1 (edcfbbe)
C            5.37454663863588       -4.60496751565249        0.09226864699111
C            4.35082157320986       -4.12576644697481        0.89307879070491
C            3.92710630128175       -2.81617891258089        0.77987742833677
C            4.52120983607280       -1.96266015624300       -0.14999029395052
N            4.09343170190389       -0.63676043705523       -0.27061667071411
C            5.01592881898531        0.37869499879100       -0.54325983907321
C            4.66655033799806        1.44877173605958       -1.36742933120884
C            5.57747127633766        2.45349255789163       -1.62825007863432
C            6.85014378541649        2.40695360145646       -1.08306835093325
C            7.20380949052893        1.34491632336744       -0.26696579835295
C            6.29693277800067        0.33999807945921        0.00755445919434
C            2.73722530330492       -0.32067409240746       -0.11657435735747
C            1.75631223097131       -1.18120675669501       -0.61427567734724
C            0.41006106095972       -0.88871131247805       -0.47026361819972
C            0.04576761474725        0.27901416251446        0.16339484900958
C            1.02305052641558        1.15278562857759        0.66068830798504
C            2.36640551916393        0.85805783141102        0.53228476069606
C            0.35476492355083        2.29094538926585        1.27332650670168
C            0.86215019556981        3.41793325242368        1.89780336168196
C           -0.02793867503958        4.35646675821331        2.39513529457031
C           -1.39702502667385        4.17485166242678        2.27160897178042
C           -1.91078513530450        3.04736581994967        1.64493882238249
C           -1.03000168918550        2.11199502553362        1.14933496432745
C           -1.34631653684873        0.81470805197117        0.42977188857604
C           -2.06774574038104        1.09292248672466       -0.86719593354884
C           -1.46819091113080        1.92958300684567       -1.79600189351427
C           -2.08278414220420        2.22641720204947       -2.99824888279923
C           -3.32266086596679        1.67760195720462       -3.27689189927618
C           -3.93482333485927        0.84230341463109       -2.36491251044872
C           -3.31750022171284        0.53546042283553       -1.14926950743308
N           -3.94198999126965       -0.30468227911258       -0.24197143358489
C           -5.21227827162733       -0.85564692841671       -0.57231410125423
C           -5.28813145169450       -2.04396673918111       -1.28742808324588
C           -6.52432429893136       -2.57663401597204       -1.60714837493575
C           -7.68330962274669       -1.92768072040249       -1.21475989403664
C           -7.60728456747560       -0.74297561406994       -0.50133381228793
C           -6.37422719504812       -0.20440498356675       -0.17907901461901
C           -3.36116757783138       -0.63552870575579        0.97138406258221
C           -4.01737646096594       -1.49761808322655        1.85411054457744
C           -3.44941846923809       -1.83407079583920        3.06589736341478
C           -2.21478152712661       -1.32109678427841        3.42463058189725
C           -1.55896781882682       -0.46996861428865        2.55468300939198
C           -2.11403052868068       -0.11986834807884        1.33340994205933
C            5.54723980930666       -2.45241213461479       -0.95831413168966
C            5.96969843403420       -3.76114150969960       -0.83119305947337
H            5.70563482143167       -5.62805523487832        0.18659076333110
H            3.88321055642314       -4.77470590880527        1.61910859129097
H            3.13459081918658       -2.44355170686478        1.41232744852268
H            3.67840148699445        1.48286339966976       -1.80262985564548
H            5.29365627271888        3.27498517148897       -2.26976514331748
H            7.56067572649515        3.19215375274918       -1.29243497622779
H            8.19185373818925        1.30257461900337        0.16764940506611
H            6.57246423264025       -0.48094399787328        0.65338867098761
H            2.06059034453096       -2.08543013507199       -1.12045034102427
H           -0.33860681386016       -1.56293320071540       -0.85978105561568
H            3.12315998929143        1.52132450850052        0.92407924736998
H            1.92800419849946        3.56336358729788        1.99487732653943
H            0.34910202201569        5.24218500685627        2.88570504349786
H           -2.07162964983336        4.92000407836718        2.66721411984045
H           -2.97764101259569        2.90670305492332        1.54771535171153
H           -0.50174770854924        2.35407453249538       -1.56485494787177
H           -1.60021775952118        2.88009079395209       -3.70839215605669
H           -3.81974016468932        1.89978515413537       -4.20958607833482
H           -4.90265628323736        0.42136552476543       -2.59208332114457
H           -4.37723013008644       -2.54040358683205       -1.58786041301217
H           -6.58291927024623       -3.50046149932483       -2.16320510471029
H           -8.64678972520087       -2.34567341439312       -1.46522956572633
H           -8.51053719216032       -0.23644778209950       -0.19534453165114
H           -6.30197190772579        0.71860831031935        0.37703259557107
H           -4.97987074419488       -1.90518950662031        1.58393900755525
H           -3.97653919204088       -2.50141528667260        3.73161710531500
H           -1.76697294623279       -1.58095254086496        4.37142718060454
H           -0.59437583529102       -0.06306122619850        2.82239711853239
H            6.00624116516430       -1.80028186275599       -1.68701993858900
H            6.76429086624687       -4.12719308755682       -1.46485855573751
