75
 energy: -113.163110618213 gnorm: 0.000050982202 xtb: 6.7.1 (edcfbbe)
C            5.38581563692353       -4.53524136875763        0.32424181973189
C            4.33769530770059       -4.01144956686196        1.06299084833430
C            3.94355190075469       -2.69952890434519        0.88785412213760
C            4.59487558473815       -1.89051905228843       -0.04984818448487
N            4.17641673791484       -0.57684818035039       -0.24750322934980
C            5.10629781925023        0.42065016062182       -0.55249416396289
C            4.77628009029917        1.44172545188042       -1.44514671512015
C            5.69656527721583        2.42531961362831       -1.74524117792728
C            6.95595762327226        2.41005085207155       -1.16375204928941
C            7.28815921277521        1.39942600941357       -0.27639148807780
C            6.37455959625668        0.41044317265474        0.03189083148184
C            2.82792381864611       -0.25588476439843       -0.09921885902034
C            1.85416793829291       -1.21623195287240       -0.56498472605103
C            0.49012257270236       -0.93578304327862       -0.44716657850153
C            0.09239199440920        0.24637979740159        0.10101728220026
C            1.06589151276161        1.22974210113201        0.57022424178239
C            2.43753078870997        0.94072322018428        0.44391669279300
C            0.37957836667579        2.31363174880520        1.12214590226457
C            0.83434961397328        3.51557440776311        1.72031614737102
C           -0.08745279360442        4.42290362951647        2.17316951863343
C           -1.46346410434570        4.18823881847099        2.06237276562319
C           -1.93392183472984        3.00450614121531        1.47494723759819
C           -1.03295307718288        2.09091689985883        1.01597742940599
C           -1.31257283411071        0.75438543149084        0.34358489999671
C           -2.04137199168944        0.96237813900669       -0.96029256613397
C           -1.45622998151035        1.76470545363408       -1.92786735872480
C           -2.08568520688673        2.01076182280419       -3.13418213385490
C           -3.32836241494235        1.44996797344943       -3.37753559382627
C           -3.92744356683656        0.64801676177779       -2.42776604296892
C           -3.29156242111109        0.38694322561075       -1.21050656134403
N           -3.89935851243510       -0.42353774389566       -0.26566199167927
C           -5.17578719805525       -0.98260170944818       -0.55426204009431
C           -5.26969593990699       -2.15218480575517       -1.29798907176781
C           -6.51291670072753       -2.69140770256103       -1.57665592669548
C           -7.66056512734490       -2.06869253030392       -1.11423246505420
C           -7.56600603661469       -0.90315781924223       -0.37183284610328
C           -6.32617738633674       -0.35716665610917       -0.09089296024696
C           -3.29950332494885       -0.71249322099335        0.94857246642444
C           -3.92941103560959       -1.56550746780642        1.85969659159521
C           -3.33971761101990       -1.86018856818184        3.07175126909849
C           -2.10974550089142       -1.31469045431773        3.40093223175101
C           -1.47832375199397       -0.47620576601071        2.50125368741357
C           -2.05400832977289       -0.16697650590898        1.27804245112127
C            5.64812717992876       -2.42571245172347       -0.79514979542293
C            6.03936062994951       -3.73477468192726       -0.60280773300690
H            5.69451069954635       -5.55929494159381        0.46864999124979
H            3.82861862271201       -4.62645467178290        1.79028311365479
H            3.14199114686091       -2.28399302421760        1.47959521905517
H            3.79817645665240        1.44737016033399       -1.90257745137915
H            5.43271580590696        3.20667550693975       -2.44225428391014
H            7.67209365488040        3.18213957496662       -1.40013590225807
H            8.26388284550259        1.38499784847514        0.18635960821067
H            6.62936404806276       -0.36889543622705        0.73505312301176
H            2.19458215759579       -2.10650329295283       -1.06684685414039
H           -0.23468642256561       -1.65569926271051       -0.80128314692750
H            3.17324675381910        1.65029180871914        0.79340752124912
H            1.89429747968958        3.70195052447592        1.81072161932576
H            0.24789008700243        5.34413678848319        2.62971129511030
H           -2.16503087243934        4.92162327711348        2.42869424239619
H           -2.99741449782301        2.82740904487548        1.38893191704476
H           -0.49171476147776        2.20438134285144       -1.72081004485826
H           -1.61424181868112        2.63817477484632       -3.87495875817573
H           -3.83780086286145        1.63774846334743       -4.31110948662478
H           -4.89885394489751        0.22062877283964       -2.62581822986023
H           -4.36761271537433       -2.62808820585550       -1.65323287297950
H           -6.58561551610627       -3.60039011793904       -2.15497762039409
H           -8.62937882740022       -2.49212720966486       -1.33268181290244
H           -8.46008018797567       -0.41671180661277       -0.01143798828308
H           -6.23931899103134        0.55078448442649        0.48732063385494
H           -4.88631958111693       -1.99957093176933        1.61171338218044
H           -3.84508516157954       -2.52038048671320        3.76104994896779
H           -1.64703706981757       -1.54165116612509        4.34911325899032
H           -0.51868776727181       -0.04431385065625        2.74461113156993
H            6.14333001655564       -1.81073845548489       -1.53239772640480
H            6.85296118831888       -4.13884468577908       -1.18670321567542
