75
 energy: -113.163161600542 gnorm: 0.000061691579 xtb: 6.7.1 (edcfbbe)
C            4.77840926868555       -4.71292473272357        0.93667441219277
C            3.81021395013919       -3.99078888174354        1.61484992648659
C            3.54086299784721       -2.68147076232698        1.26807048806092
C            4.23860750697674       -2.07668384436902        0.21652411163842
N            3.94418394944658       -0.76636989747103       -0.15357957465996
C            4.95935047355041        0.08195522345137       -0.60370802401472
C            4.70870750310405        1.00270668605866       -1.62249079234233
C            5.71363544530369        1.83891407467821       -2.06439474592857
C            6.98010894429715        1.77386577991129       -1.50193735089005
C            7.23390151809337        0.86215990651552       -0.49019494356147
C            6.23536422321200        0.02114354273372       -0.03938496488598
C            2.63798547766471       -0.29584799561948       -0.03439415936752
C            1.56283596291239       -1.21244311175087       -0.34137794205567
C            0.23787467129014       -0.78560147713979       -0.24410750931986
C           -0.02931141175418        0.49733321570127        0.13287691053756
C            1.04631474807483        1.43762856974722        0.43526627920752
C            2.37827068851771        0.99927025905170        0.33429030136461
C            0.48223901610058        2.65584257723156        0.82472169111311
C            1.06734406746180        3.88212587523104        1.22472448052925
C            0.25005542552702        4.93547035172881        1.54521924557447
C           -1.14406139297043        4.82445326430190        1.48968858484742
C           -1.74267649085156        3.61836289144240        1.09758145551566
C           -0.94715964841842        2.55953342077193        0.77264147766744
C           -1.37226233498475        1.17398401278083        0.32152791135881
C           -2.10574777826153        1.20408794362213       -0.99582534516095
C           -1.64848281171531        2.03575454379052       -2.00609897585176
C           -2.25158446348853        2.05101005021260       -3.25053476741846
C           -3.32992248174796        1.21642348957318       -3.49347525912925
C           -3.80217801371715        0.38306889321814       -2.49985486809812
C           -3.19825575677374        0.36398207645022       -1.23981588455412
N           -3.68774627603281       -0.46465285235585       -0.24268802699154
C           -4.76785854781833       -1.33943245299061       -0.54690395505052
C           -4.50638263314484       -2.58449178416007       -1.10331451274857
C           -5.55385520604233       -3.43751255167810       -1.40326961614785
C           -6.85929124472847       -3.05197080837053       -1.14825363475792
C           -7.11966222776447       -1.80962337904097       -0.59319347237263
C           -6.07765773743199       -0.95102608578167       -0.29254448581348
C           -3.23083314947296       -0.38455307217293        1.06286589743231
C           -3.84475508375527       -1.12820904241950        2.07427224591722
C           -3.40590598044414       -1.03697035704043        3.37953178896563
C           -2.34693456782091       -0.20496394092522        3.70389332246590
C           -1.72163240307459        0.51777829799362        2.70461487874675
C           -2.14532129063167        0.43836182154426        1.38689952905130
C            5.21082391587093       -2.81133105831388       -0.46648570250957
C            5.47800091116327       -4.11517631953330       -0.10300759241904
H            4.98988447250856       -5.73400537574841        1.21505904821309
H            3.26659529827038       -4.44722893577419        2.42879426125642
H            2.80292353116552       -2.11060602981766        1.81118593173530
H            3.72438779417578        1.04648236163955       -2.06428339094575
H            5.51015615363499        2.54295855856691       -2.85739655072841
H            7.76259263579228        2.43090542670634       -1.84956279463750
H            8.21521063917106        0.81053251329156       -0.04216377377500
H            6.43011045179907       -0.67911922061040        0.75963448693907
H            1.80214251850169       -2.19485086819702       -0.71297537616358
H           -0.56214230665759       -1.47450117270971       -0.47777704562591
H            3.18810441715217        1.67544380685699        0.56653274695031
H            2.14241862403312        3.97417944174942        1.27087908507649
H            0.68568298788487        5.87716106594310        1.85015242898814
H           -1.76133200003433        5.67074651634108        1.74862374682298
H           -2.82003679590183        3.53596188713472        1.05410323815688
H           -0.80364155436845        2.67805093374199       -1.80570410418610
H           -1.88177186574125        2.70561109888304       -4.02476981827096
H           -3.81050815889766        1.21442778230318       -4.46061502811513
H           -4.64908977052307       -0.25694919668464       -2.69687227664584
H           -3.48450989247247       -2.87379434712177       -1.29909220484664
H           -5.34979138967711       -4.40554176445545       -1.83594921624886
H           -7.67475302390983       -3.71960516869052       -1.38252608040626
H           -8.13726065119726       -1.50750491667076       -0.39528602994588
H           -6.26769084864906        0.02035270272566        0.13973014792988
H           -4.66999352099150       -1.78113341396519        1.83311243778452
H           -3.89556489831388       -1.61960589090224        4.14577665825889
H           -2.00485172579699       -0.12809927436967        4.72456090990098
H           -0.88383691280358        1.15688686659888        2.94155800133926
H            5.74046846377809       -2.35456757774846       -1.28978419566630
H            6.22960759001514       -4.67459577139113       -0.63992192184467
