89
 energy: -139.650592286656 gnorm: 0.000163929113 xtb: 6.7.1 (edcfbbe)
C           14.29378296217028        2.32672112356420        0.41324055752017
C           13.30698866164590        1.94791993937455       -0.39020071645995
C           11.89859285568667        1.80946133967678       -0.04071785217239
C           11.39110275071062        2.11979238832991        1.22155952185513
C           10.04906420800675        1.96331983217858        1.50365428437790
C            9.16901946902788        1.50000755997315        0.53381249773847
C            7.70180082802000        1.35251466527378        0.83710943874145
O            7.20363425780919        0.22724683643724        0.14802793044668
C            5.88497403795119       -0.09799062879663        0.27120402893461
C            4.95965537585193        0.61830283308303        1.03510977991654
C            3.63519201812746        0.22133553232128        1.11682392787023
C            3.24325484463244       -0.91361128000148        0.43150060247771
C            4.16385978656083       -1.63246421993664       -0.36306861668724
C            5.48339230419460       -1.22555958165926       -0.43982785048855
C            3.43167662560348       -2.71710119822743       -0.95821851922146
C            3.79534075974885       -3.76441532652097       -1.79336694866491
C            2.83307167174832       -4.68635586649354       -2.15384523248837
C            1.52977302854288       -4.58481658556619       -1.67471696608776
C            1.14486184591336       -3.55153482775693       -0.84185101455289
C            2.09824522843752       -2.60214486579293       -0.50788972543074
N            1.99166106869074       -1.50104634006403        0.32539787429674
C            0.84180844383786       -1.07921040962027        0.98912206273173
C            0.86033793871297       -0.89751433352822        2.36845252176300
C           -0.28917099865324       -0.52019376459171        3.03851938330087
C           -1.46983869930924       -0.30926572527158        2.34900269474262
C           -1.50989327105447       -0.45540099643552        0.96658090214300
N           -2.69897004299217       -0.22506236498498        0.27605544206295
C           -2.88221552954053        0.63922989469536       -0.78814132262042
C           -1.99043832907853        1.53063067072680       -1.36442532093444
C           -2.44955818359360        2.31875933695763       -2.40201378549106
C           -3.76630363418169        2.23900687713702       -2.84872042415942
C           -4.66656194205838        1.37662369138417       -2.25637713087345
C           -4.22766322374770        0.57143181800272       -1.21377858639149
C           -4.87976081197061       -0.38810811108281       -0.36684832631689
C           -6.17722360252861       -0.88497819040285       -0.33185814543519
C           -6.48903371775813       -1.83950896151797        0.62257092119757
O           -7.71671601559081       -2.42223017355670        0.77324836652728
C           -8.71843324177927       -2.13060994469857       -0.17433820294230
C           -9.24629517562501       -0.71804125626569       -0.11402041120240
C           -9.21242645918199        0.00243333328543        1.07289587639891
C           -9.70881503394354        1.28875642139949        1.13054866409562
C          -10.26400843233272        1.89404653995972        0.00271632304415
C          -10.81092553209048        3.24520858498494        0.00997129175915
C          -10.96471056695738        4.03443293678724        1.06636746656716
C          -10.29217598689805        1.16143565143423       -1.18573405022975
C           -9.79107682052066       -0.12298112097198       -1.24512010128237
C           -5.51161335621164       -2.28996487639591        1.52273872009112
C           -4.22112513132565       -1.80764609603290        1.49448239205885
C           -3.90957127143540       -0.84331513657443        0.54759710332996
C           -0.34794211088444       -0.84439050456583        0.27657041159454
C           -0.37612739153314       -0.99786027355231       -1.12821033643186
N           -0.39756925882742       -1.11612163515073       -2.26863079190495
C            9.66198161522801        1.19409262878719       -0.72770471203127
C           11.00517481796187        1.34367591814051       -1.00711323574815
H           14.14044533548178        2.57915225727648        1.44837082303883
H           15.30778060592832        2.39671040014431        0.05852576049545
H           13.53746459907694        1.70382162087854       -1.42046040871460
H           12.05089631602640        2.48410610320114        1.99346375022657
H            9.67837582399037        2.20472263162309        2.49018589965188
H            7.17117980049169        2.26270873337686        0.51023404273542
H            7.55367781035795        1.23872390552085        1.92075131047456
H            5.26249637859033        1.50167894216270        1.57445002277334
H            2.93397344383777        0.79889458488556        1.70066499953918
H            6.20657558028790       -1.75673278346031       -1.03668860915371
H            4.81201808373455       -3.85342488070761       -2.14429324946871
H            3.09286352266620       -5.50626962452311       -2.80645849819930
H            0.80239486968401       -5.33123156061432       -1.95629772949032
H            0.13453066704154       -3.49805022958225       -0.46509103740576
H            1.77620630346826       -1.08306960606059        2.90785818344148
H           -0.26595330278941       -0.39329975905827        4.11016715405757
H           -2.36575812158689       -0.00754452074250        2.86905884886316
H           -0.97144579173106        1.61523783647677       -1.01760041064407
H           -1.77216369655769        3.01461671433454       -2.87367908873982
H           -4.08554973338368        2.87105725695990       -3.66381436980811
H           -5.69335175466577        1.33025194370495       -2.58664792400937
H           -6.90609659966241       -0.51823076805282       -1.03563464450774
H           -9.52877164462478       -2.82931575087636        0.06734781511396
H           -8.36383537539828       -2.35900959077147       -1.18977833046547
H           -8.78575595410827       -0.45422689281627        1.95402578531879
H           -9.66119553523831        1.82830910796136        2.06348814776390
H          -11.12422696302540        3.60657135406886       -0.96238009691743
H          -11.38574485119763        5.02059507795091        0.97113272343118
H          -10.68605118993061        3.73693268345376        2.06265625784494
H          -10.71368815085632        1.60976438019036       -2.07450613441869
H           -9.82050931133663       -0.67133579214891       -2.17671725533455
H           -5.80097952244575       -3.04049357526244        2.24108986429178
H           -3.48018250841963       -2.18305759881388        2.18416809929932
H            8.98409095477022        0.82806396864739       -1.48311177529012
H           11.37420527824574        1.09643267300857       -1.99262658708513
