89
 energy: -139.566643820467 gnorm: 0.000133641585 xtb: 6.7.1 (edcfbbe)
C           -0.26744843690611        2.75879280005033       -2.22839620201742
C            0.24660991204146        3.84081202032717       -1.65929824147880
C            1.61355520580785        3.93196834185147       -1.15660927000402
C            1.90979565806883        4.77741862720833       -0.08809898725093
C            3.17936701079146        4.81741082364044        0.45431786704830
C            4.19921388601844        4.04248702671876       -0.08461234843073
C            5.56903727267584        4.03500177649494        0.55403832056745
O            6.28138800234295        2.82262888512645        0.37715088034043
C            5.64528498837696        1.65087149391169        0.61815676710267
C            4.44948558178297        1.54780944328931        1.34769711120616
C            3.77544953531972        0.35018557782919        1.43486752106554
C            4.30772593581277       -0.75799609413093        0.78953808931939
C            5.58667583313797       -0.70011011383429        0.17354841112130
C            6.24927305528481        0.50872254498304        0.08078708380611
C            5.86520336759953       -2.03167160891265       -0.28885794285822
C            6.93953821514928       -2.61359634070185       -0.94640432311996
C            6.86500706860369       -3.95547351588460       -1.27978876547218
C            5.73413619016076       -4.71026889410392       -0.98236193720043
C            4.64881428281584       -4.15179134388735       -0.32481249870546
C            4.72903826952831       -2.81710148113047        0.03520108920844
N            3.79788758183597       -2.02471027307783        0.68169122535219
C            2.48508041313685       -2.37882779770038        1.00684051677069
C            2.20764877233846       -3.49525741111189        1.75843777105893
C            0.89054196472170       -3.83554424208100        2.08022109910085
C           -0.16067992632081       -3.02000203082060        1.64726477127511
C            0.07762225913628       -1.89490620975421        0.89379209481651
N           -0.97945879690794       -1.08223274886918        0.47027541029180
C           -1.07738035120848        0.28585154298525        0.64448096707846
C           -0.21234857065553        1.15967386692701        1.28178838379466
C           -0.57730247751081        2.49213873929290        1.36336576309957
C           -1.78100430169315        2.94472295715628        0.83274286740440
C           -2.65728765265786        2.07652942672480        0.20566399767338
C           -2.31019133038582        0.73695035824786        0.10998236376405
C           -2.97043393134263       -0.42058669744869       -0.42109395870435
C           -4.18075470589513       -0.60204504180557       -1.07376880533980
C           -4.52373740531161       -1.88693700515198       -1.48218509450260
O           -5.66929361495479       -2.21355180680317       -2.13149446928009
C           -6.57906198441751       -1.18867211335896       -2.47386740468650
C           -7.23455288496837       -0.52011486412739       -1.29042167181395
C           -7.64491752081099        0.80575134810325       -1.36835654424938
C           -8.26004704456382        1.41030686956527       -0.29204589486739
C           -8.48128511039448        0.71599225142262        0.90081215006036
C           -9.13340116904673        1.40322421819698        2.00499200285674
C           -9.42508904093985        0.89671188176647        3.19925208433096
C           -8.06193543961160       -0.61496821802019        0.96731153997613
C           -7.45385044472275       -1.22222581355474       -0.11128294082602
C           -3.65225096176609       -2.96896766650235       -1.24723527546623
C           -2.44942319346286       -2.80066520459428       -0.60068227896285
C           -2.11053950002980       -1.52147929632035       -0.17112039782299
C            1.41845975366150       -1.54648434958844        0.50398815989697
C            1.64920568007820       -0.57190703177783       -0.44432878248848
N            1.83275409789663        0.25194911073024       -1.24314748648883
C            3.92611094747266        3.25353703153425       -1.19528037585040
C            2.64985844670422        3.18587508596347       -1.71462947704950
H            0.30444386052099        1.85327916220735       -2.33670953064557
H           -1.28855497111719        2.73013596337610       -2.56985129612163
H           -0.36718600884783        4.72089884931772       -1.50676984272831
H            1.12590108402632        5.38505101647168        0.34256025825048
H            3.38207802570520        5.45052732116456        1.30800098732903
H            5.48513569164607        4.27338678371666        1.62413150909649
H            6.21356140664341        4.79092994315256        0.09033441122418
H            4.03537208558705        2.41458428531800        1.83460112326387
H            2.85662575334966        0.27982541136520        1.99460437585414
H            7.19472077422535        0.60370901552586       -0.42845967329489
H            7.81146455307733       -2.02817373120160       -1.19442078764650
H            7.69300264543204       -4.42512527074786       -1.78943401142318
H            5.69855385160454       -5.74954794521972       -1.27187171860694
H            3.76793503359293       -4.73700914289325       -0.11015304736270
H            3.02474952921746       -4.09120370547242        2.13810267991191
H            0.68842104994993       -4.69760179324172        2.69317898096014
H           -1.17434048525549       -3.25086803283408        1.94102207046653
H            0.71582048566665        0.81790619280962        1.70914045343254
H            0.08591555974716        3.18975847811210        1.85104517597722
H           -2.03705071849609        3.99001802538372        0.91911634055737
H           -3.59657954893627        2.42844196120201       -0.19369013401337
H           -4.82820590697300        0.24217272064025       -1.24350908811043
H           -7.34079372681090       -1.69884602490987       -3.07558208739929
H           -6.08712422310613       -0.43923390996215       -3.10957020158018
H           -7.48060085565412        1.36421221992857       -2.27986285739778
H           -8.57449818443518        2.44166418151184       -0.36959668626775
H           -9.39778460384460        2.43353306866403        1.79794012428098
H           -9.91341366724425        1.49001569583261        3.95300748180959
H           -9.19361204872575       -0.11718302913114        3.47635943155205
H           -8.21566226466167       -1.18339063019432        1.87101966962602
H           -7.13743292390385       -2.25313792042131       -0.04436155052747
H           -3.95733825727170       -3.94034895830495       -1.60152814071663
H           -1.78531136227629       -3.63639074839471       -0.44428054567061
H            4.71503803425784        2.66995607465089       -1.64634568850893
H            2.45393650808770        2.54737962258269       -2.55931236641450
