89
 energy: -139.566682596060 gnorm: 0.000130520423 xtb: 6.7.1 (edcfbbe)
C           -0.27510838070642        2.72591595320300       -2.25377398397178
C            0.23371203193597        3.81572406951772       -1.69489013180559
C            1.60052637404370        3.91907445131903       -1.19425705177028
C            1.89348703532481        4.77801952787649       -0.13559823880739
C            3.16331970746068        4.83058325127600        0.40515584520641
C            4.18669850984963        4.05518873667530       -0.12628776532242
C            5.55729773413187        4.06228229356318        0.51066191651532
O            6.27717024648413        2.85311246494605        0.34308373226047
C            5.64874576780813        1.67944502354097        0.59524724570363
C            4.45615268403904        1.57493246763136        1.32968836219586
C            3.79044851832735        0.37363588172749        1.43011664915183
C            4.32801671090254       -0.73665127945557        0.79283082074591
C            5.60320548725730       -0.67525272100455        0.16967340649150
C            6.25757580931106        0.53695014947201        0.06419234802223
C            5.88855552402769       -2.00879253576033       -0.28304716757924
C            6.96263844454301       -2.58861773496488       -0.94273763161755
C            6.89573487634440       -3.93395457973308       -1.26365898406849
C            5.77277088340178       -4.69448609411671       -0.95129078685289
C            4.68776991041532       -4.13816291319177       -0.29152277958847
C            4.76028908880954       -2.79946241606497        0.05517905646878
N            3.82738607496894       -2.00812556088739        0.69990623131829
C            2.51970342577672       -2.36978953144381        1.03836387803544
C            2.25857155629928       -3.47681251031415        1.80909238070374
C            0.94678154180536       -3.82378903065813        2.14640191015976
C           -0.11446634593801       -3.02531466407844        1.70768059719410
C            0.10749161869951       -1.91059867984878        0.93339124477682
N           -0.96141505595611       -1.11829051445696        0.50224376229131
C           -1.07433660843136        0.25216286786219        0.64808661779086
C           -0.21377756167775        1.15034170648131        1.25695543806039
C           -0.59547589711674        2.47944906256035        1.31512568283195
C           -1.81074943195317        2.90536559264453        0.78872524860148
C           -2.68234711119901        2.01309368669643        0.18959837319251
C           -2.31889989004694        0.67623306814142        0.11827983080984
C           -2.97103989036610       -0.50046518850886       -0.37917207979502
C           -4.18775455777196       -0.71115701897806       -1.01110060835510
C           -4.52123149366771       -2.00929378115622       -1.38390967275483
O           -5.67317175194265       -2.36514679883066       -2.00606893544887
C           -6.59950485055384       -1.35981295136165       -2.36105143185040
C           -7.24023111198322       -0.66149389238546       -1.18667064825074
C           -7.68001469086980        0.65263600437582       -1.30526553436998
C           -8.28043973654572        1.29334575971704       -0.24207845484898
C           -8.45589793957205        0.64291632245293        0.98220989924768
C           -9.07942152381519        1.27326308690266        2.13578872128044
C           -9.61131852068367        2.49071641966380        2.18939275170941
C           -8.00637283417750       -0.67581921649736        1.08995635435839
C           -7.41433179229449       -1.32040159205829        0.02372183523575
C           -3.63288960466511       -3.07508625508684       -1.13784510774252
C           -2.42307738804091       -2.87751027420438       -0.51283723217605
C           -2.09466742154612       -1.58521348601055       -0.11569808363844
C            1.44260003136883       -1.55520010096539        0.52985437688083
C            1.66002446838457       -0.59194630928551       -0.43321607228470
N            1.83409897925621        0.22317501594380       -1.24308305853075
C            3.91654884522573        3.25234304598540       -1.22770470668846
C            2.64009139375407        3.17187644898399       -1.74466279964839
H            0.30106695992641        1.82220362405929       -2.35409399654602
H           -1.29654328273491        2.68879435685073       -2.59339739303978
H           -0.38477837034286        4.69373890905908       -1.54954450209742
H            1.10699905312305        5.38672933149196        0.28882520663121
H            3.36355073804014        5.47423637411186        1.25150491289817
H            5.47314479290748        4.30934883900576        1.57877278642873
H            6.19623993392918        4.81843923883883        0.03966839881109
H            4.03801949155555        2.44329303821525        1.81035334321110
H            2.87411715284856        0.30197632811689        1.99387603166164
H            7.20021990743850        0.63386607096242       -0.44986197610952
H            7.82845282114669       -1.99904411344827       -1.20207602243286
H            7.72357021640745       -4.40197504002632       -1.77506366134773
H            5.74320172909501       -5.73668204798058       -1.23084622247539
H            3.81286988981960       -4.72787838704311       -0.06495472646640
H            3.08401299651771       -4.05938968923473        2.19144643870749
H            0.75711298786056       -4.67748570038445        2.77484339829783
H           -1.12380027416754       -3.26035476275240        2.01282140726139
H            0.72397403183200        0.83035294582136        1.68019328284559
H            0.06398473068494        3.19550184520946        1.78059534890644
H           -2.07953509484431        3.94884564629903        0.85614912082594
H           -3.63055054290962        2.34429562813926       -0.20641649616612
H           -4.84748157533481        0.12130651259303       -1.19141857208230
H           -7.36683899421806       -1.89472396190563       -2.93346078842328
H           -6.12665037237070       -0.62487765991053       -3.02753840686597
H           -7.54830840025481        1.17553590669468       -2.24288939536565
H           -8.61033797420460        2.31339409079487       -0.36206616698281
H           -9.10089560066509        0.65593567787986        3.02602910907413
H          -10.05386600466696        2.86709563049009        3.09552551980683
H           -9.63224027539139        3.15742945120923        1.34465339973906
H           -8.12987775225638       -1.20152270652199        2.02624820268062
H           -7.07623812990677       -2.34139504317604        0.12568741203068
H           -3.93082617773445       -4.05787662880211       -1.46572044116744
H           -1.74629358183282       -3.70139294287602       -0.34824430669776
H            4.70806091736339        2.66811218782003       -1.67333644957286
H            2.44664077481540        2.52242572485983       -2.58155763742740
