89
 energy: -139.658925599310 gnorm: 0.000062707705 xtb: 6.7.1 (edcfbbe)
C           -0.23765758185491        2.79578652348615       -2.27858663503444
C            0.27346996564177        3.85629684000530       -1.66828319727903
C            1.64020304567932        3.94394270840078       -1.16435596456458
C            1.92825333047308        4.77141139279126       -0.07951223761937
C            3.19562394197064        4.80849912989928        0.46777537981943
C            4.22257817735276        4.04950699208242       -0.08000247354211
C            5.58890816077262        4.03502785903361        0.56408305349621
O            6.30480842753556        2.82877424823160        0.37827385990138
C            5.65476537475170        1.64867215077742        0.60830835058753
C            4.47145688417486        1.54679170045824        1.34712039877692
C            3.79140540114822        0.34970673784241        1.44242056991766
C            4.30839092867450       -0.75329772719969        0.78852832622546
C            5.56572806590490       -0.69550697825604        0.15451339780199
C            6.23586232178770        0.51272827935149        0.05489314952036
C            5.84524736582578       -2.02793381730223       -0.31035341733485
C            6.91134206549652       -2.59221524180086       -0.99660744534867
C            6.85424980946051       -3.93281206867101       -1.32435789340897
C            5.74379309532750       -4.70385402542903       -0.99245852811390
C            4.66841561639585       -4.16420212326163       -0.31103632967691
C            4.73336160200497       -2.82621658372281        0.04445924906260
N            3.80351247879667       -2.04317840366548        0.70727973956552
C            2.49338725972361       -2.39476699376633        1.02027216027547
C            2.21555747462803       -3.52738118291307        1.77661747565066
C            0.90545091226036       -3.85499162430723        2.08099339256957
C           -0.14141536268606       -3.05174427123333        1.66623805926358
C            0.10694692478574       -1.91279282690331        0.90529553426411
N           -0.94514809483588       -1.10373441950531        0.48318797769266
C           -1.04463966909753        0.26838877589371        0.64523862796795
C           -0.18034244933297        1.15276923952761        1.27076974608004
C           -0.55277252335312        2.48032196555786        1.34596783507325
C           -1.76470487871654        2.92463693353501        0.82533612144547
C           -2.64010428733074        2.04669807066910        0.21962717552087
C           -2.28355945770853        0.70805945839660        0.12845665891806
C           -2.95150003373329       -0.45477702781955       -0.38591798377430
C           -4.17036106564959       -0.62932674974499       -1.03023739875147
C           -4.52548396490004       -1.90799245623923       -1.42776495672622
O           -5.68568507872876       -2.23292992164050       -2.07301588452871
C           -6.56540059693753       -1.19363999574915       -2.43737638891140
C           -7.23809613121439       -0.50861584879923       -1.27292989513974
C           -7.66306957227520        0.80960120456340       -1.38127602041886
C           -8.29761209991038        1.42796592568038       -0.32316159371831
C           -8.52723540096149        0.75196583824058        0.87685666145629
C           -9.20831038780065        1.45047378792672        1.96000720306036
C           -9.62062949048504        0.92555509984235        3.10756647243134
C           -8.08890940543143       -0.56878531974498        0.97722998184708
C           -7.45865204029460       -1.18889178238908       -0.08223046321208
C           -3.66391719006988       -2.98939813058294       -1.18958680812102
C           -2.45251101722002       -2.82708482954280       -0.55335672129484
C           -2.10254553242110       -1.55098321540580       -0.13703867413784
C            1.43067046650509       -1.59703293056010        0.55398849465510
C            1.67299711440894       -0.56147449423082       -0.37581196710571
N            1.84395705021424        0.22090602704203       -1.19695611489125
C            3.95749038626612        3.28003742264400       -1.20632282715242
C            2.68357337241672        3.21549167596847       -1.73195504006561
H            0.33678512774014        1.89911997222599       -2.43392586802491
H           -1.26088962273004        2.77531924248938       -2.61354737753443
H           -0.34844064483771        4.72301851710768       -1.47820107781799
H            1.13928889859202        5.36719021002159        0.35847840076147
H            3.39141400922934        5.42750078746163        1.33340981803185
H            5.49918815548945        4.26636101208728        1.63605288276034
H            6.23196085847067        4.79827700860340        0.10989652030878
H            4.06236920343197        2.41198425805341        1.84190552786884
H            2.88016722213595        0.29023429745163        2.01796506456389
H            7.17872783093583        0.59698142874867       -0.46084624708576
H            7.76409251586310       -1.98926305917494       -1.26842534631612
H            7.67580481555463       -4.39152012821459       -1.85387238361593
H            5.71902842685565       -5.74579072906741       -1.27551113637279
H            3.80461457855009       -4.76787450569044       -0.07612414392759
H            3.03209165607236       -4.13257154414629        2.13806825548956
H            0.70006613449602       -4.73362396340064        2.67349884527670
H           -1.15738062450164       -3.28757673208682        1.94195931059217
H            0.75416825131857        0.82534638712138        1.69771281659209
H            0.11179034667739        3.18447857514716        1.82293566288222
H           -2.02398748351560        3.96937738035219        0.90745390914870
H           -3.58914719649035        2.38524150595610       -0.16812849423718
H           -4.80795937557098        0.22239711160398       -1.20071214527753
H           -7.32580233767362       -1.68907450012321       -3.05335531032311
H           -6.04791936416505       -0.45439869646576       -3.06555006544803
H           -7.49438192927202        1.35256209986687       -2.30119472956471
H           -8.62385326528752        2.45363917716245       -0.42404379663303
H           -9.39240039364501        2.50122560590139        1.76968323087073
H          -10.12321128554715        1.52422361796019        3.84776428763182
H           -9.48319065702714       -0.11245878309609        3.35736703470055
H           -8.23871738835954       -1.11820085151427        1.89345740273450
H           -7.12536915635149       -2.21240350982762        0.00895324140500
H           -3.97779915472423       -3.96320676563434       -1.53043581343111
H           -1.79761090500036       -3.67153463017197       -0.40167983801820
H            4.75312394456094        2.70979806483782       -1.66234491406847
H            2.49543988548854        2.59519087719377       -2.59265686864861
