  62
        -87.79860852
 C          1.7233605880       -3.4950738751       -2.9004457368
 C          0.9201216952       -2.6564120251       -1.9538600945
 C          1.5653407864       -1.8709979393       -1.0084947614
 C          0.8424037641       -1.0896002774       -0.1210631214
 P          1.4951484060       -0.0112694239        1.2027509817
 C          3.2892294956       -0.3744925274        1.0747866956
 C          3.6899999924       -1.6686508671        1.4043911765
 C          5.0274820365       -2.0126716882        1.4024544899
 C          5.9855700043       -1.0592618917        1.0946608642
 C          5.5977583230        0.2368008987        0.8008517948
 C          4.2575673425        0.5827699277        0.7972085849
 C          1.4121891328        1.5794881498        0.2939437680
 C          1.7632501291        1.6897350255       -1.0468465979
 C          1.6541021633        2.9072758200       -1.6912428118
 C          1.1927969566        4.0199415266       -1.0060684141
 C          0.8461983845        3.9161030127        0.3296925218
 C          0.9547887133        2.6988854954        0.9773599408
 C         -0.5519104888       -1.0892137173       -0.1856596833
 P         -1.3543230640        0.0020498236        1.0333141282
 C         -2.9888471855       -0.8298186711        1.1304221313
 C         -4.1979634490       -0.2683607187        0.7398658681
 C         -5.3744713328       -0.9814276190        0.8953512621
 C         -5.3574091443       -2.2517325294        1.4452963624
 C         -4.1555362417       -2.8123196487        1.8491920431
 C         -2.9808845544       -2.1020551940        1.7000431057
 C         -1.7835969088        1.4458405942       -0.0083148007
 C         -2.3463923165        2.5347410800        0.6537258301
 C         -2.6685609271        3.6861388761       -0.0374031565
 C         -2.4165592990        3.7669791713       -1.3974963527
 C         -1.8480523522        2.6921557660       -2.0585335737
 C         -1.5314943295        1.5341205929       -1.3705365643
 C         -1.2003192476       -1.8726474503       -1.1277238031
 C         -0.4789049097       -2.6611822422       -2.0124676448
 C         -1.1971619976       -3.5074695955       -3.0185093384
 H          1.4792982410       -4.5501074425       -2.7784588024
 H          2.7877738816       -3.3637687554       -2.7226071182
 H          1.5071757132       -3.2240042230       -3.9335743014
 H          2.6464040258       -1.8783831465       -0.9653836220
 H          2.9357143664       -2.4045578769        1.6537601995
 H          5.3268327014       -3.0221743443        1.6460675346
 H          7.0326786737       -1.3249410934        1.0933657180
 H          6.3439888319        0.9852392067        0.5745111798
 H          3.9638404203        1.5985966685        0.5728840727
 H          2.1202768251        0.8201765294       -1.5822642140
 H          1.9262444053        2.9899995634       -2.7339506539
 H          1.1025184242        4.9680549781       -1.5159096683
 H          0.4853328821        4.7828102494        0.8639535970
 H          0.6804639668        2.6030984016        2.0189940068
 H         -4.2220130693        0.7208023272        0.3054279639
 H         -6.3106578913       -0.5412087386        0.5825950882
 H         -6.2788088062       -2.8034165028        1.5621244721
 H         -4.1381717115       -3.8014541219        2.2837188969
 H         -2.0378095655       -2.5295313726        2.0157715806
 H         -2.5269184738        2.4662089821        1.7189495190
 H         -3.1089612508        4.5245885575        0.4829869836
 H         -2.6596290837        4.6688276132       -1.9402002647
 H         -1.6466779205        2.7553770690       -3.1185894821
 H         -1.0826490884        0.7021117149       -1.8946155078
 H         -2.2816796405       -1.8731449326       -1.1705500766
 H         -0.9427871568       -4.5587261264       -2.8861615405
 H         -0.9147905406       -3.2244640151       -4.0324796635
 H         -2.2735096633       -3.3960630844       -2.9143988472
