79
 energy: -121.036859507511 gnorm: 0.000062298844 xtb: 6.7.1 (edcfbbe)
C            7.53884945821683       -1.54448544042010       -3.64725726990047
C            6.72734657518757       -2.27396310754517       -2.79327548095681
C            6.20707794360694       -1.69171237819835       -1.65344878337585
C            6.48637866937515       -0.35789891896750       -1.35433499724849
N            5.96217480387753        0.23530568807151       -0.19953924924220
C            6.72754016197506        1.15896902657071        0.52361359489859
C            8.10254498513793        0.97732794365395        0.67301716349478
C            8.85375119702830        1.89689563237111        1.37958905032863
C            8.24977401886468        3.00303334638049        1.95567385652531
C            6.88312845369352        3.18469893126459        1.81604674317069
C            6.12485485896808        2.27550204919591        1.10366132740931
C            4.67148701474618       -0.08913067641666        0.23072037145271
C            3.64456182875722       -0.29593615801827       -0.69130350320864
C            2.37272052199760       -0.61249807001589       -0.26208518696135
C            2.08292312402980       -0.73971173985141        1.09544477642244
C            0.72709578865830       -1.08343175032229        1.54816657298246
C            0.53039928875945       -2.00892490667414        2.57271844242469
C           -0.74722444461064       -2.32202270354274        2.99844946060988
C           -1.85050589586640       -1.72850203186124        2.41197309881282
C           -1.67440661099120       -0.81232964587451        1.37696316525267
C           -2.79047334167166       -0.12917506375067        0.73722595613412
N           -2.75215781649959        1.13560070233478        0.39630029422424
C           -3.96932953500181        1.41336466191609       -0.14391066022820
C           -4.44667112803855        2.66676891274827       -0.61984237502008
C           -3.64973966689704        3.81588296861490       -0.56596927344839
C           -4.14326707411219        5.02395391093193       -0.99183821780892
C           -5.44820182551430        5.09725922267392       -1.47618148141889
C           -6.23808309112328        3.97296580165320       -1.54065563552833
C           -5.76677973431497        2.71783396922790       -1.12421986715066
C           -6.56464250025432        1.50627870276346       -1.21074547423403
C           -7.84439341956208        1.50823159323477       -1.78487751697351
C           -8.59128767766379        0.36031543254420       -1.90841911198952
C           -8.07680800686708       -0.85738441186812       -1.47373814742616
C           -6.83004196794562       -0.90187644680305       -0.89971725700617
C           -6.06370200054436        0.26162894264020       -0.73780749111336
C           -4.76746335192704        0.27112767293673       -0.14860864213327
N           -3.99921642025623       -0.71320706230118        0.43405628864964
C           -4.33112624595757       -2.06112177678946        0.69253601089365
C           -3.62105933801979       -3.07640736876343        0.06332177853032
C           -3.92267589263613       -4.39782508358213        0.34264005116988
C           -4.92695513633309       -4.70820987479247        1.24449913085781
C           -5.63348857253556       -3.69424315935339        1.87218270081215
C           -5.33780286179777       -2.37030546429440        1.60275703064452
C           -0.38493413004533       -0.49194276275767        0.96050100986837
C            3.11256138244932       -0.53428953672402        2.01219599170232
C            4.38561840089367       -0.21129076640880        1.59120011501507
C            7.29824595471372        0.37380256608250       -2.22140844033491
C            7.82181023137975       -0.22015341366487       -3.35367459353358
H            7.94748444365229       -2.00395346792969       -4.53478752235279
H            6.50458166772174       -3.30864472587001       -3.01067278558589
H            5.58317385875752       -2.26684643555730       -0.98480993142614
H            8.57489129618145        0.11125590216572        0.23235258991386
H            9.91772881416120        1.74339573889760        1.48832689837743
H            8.83980102794478        3.71807715298311        2.50919762648938
H            6.40381083410379        4.04658634662258        2.25743641560767
H            5.06116622771915        2.42531901294172        0.98750992828249
H            3.85225780479289       -0.20263176198397       -1.74743080082310
H            1.59201349795366       -0.77442226120992       -0.99086920221749
H            1.38328376601448       -2.49093583975014        3.02718345792274
H           -0.88838161364506       -3.03345735623582        3.79908040001038
H           -2.84008719773527       -1.96175168083341        2.77373496240080
H           -2.64878228916743        3.71783948173698       -0.17378508483148
H           -3.53116665097861        5.91300725588830       -0.94879990054784
H           -5.84474807512909        6.04755179730190       -1.80397923725286
H           -7.24220040866913        4.07911108131276       -1.91942750115580
H           -8.26414417547103        2.42992505745710       -2.15402773204720
H           -9.57348620475068        0.40265669265934       -2.35608600168284
H           -8.65158401120830       -1.76435546706740       -1.59051870852968
H           -6.42666262270915       -1.84949373832306       -0.58052859021648
H           -2.83858886796182       -2.82330472003918       -0.63689377637799
H           -3.37105178591599       -5.18530138139080       -0.14815233512601
H           -5.15972471889632       -5.74010837649662        1.45947539270020
H           -6.41529117026166       -3.93275608507665        2.57756790445028
H           -5.88087120726698       -1.57157876900938        2.08760620779842
H           -0.26422903134986        0.24495512140059        0.18088797628517
H            2.90862057726762       -0.61464694670636        3.06988160851442
H            5.17171276568967       -0.05252222939371        2.31510489040255
H            7.51334231042823        1.40936783463264       -2.00091015258979
H            8.44872216340596        0.35889480862146       -4.01625832239765
