  79
       -120.98908241
 C          7.1815803786       -3.5254751300        1.4284498187
 C          6.4216817315       -2.6474670707        2.1837994624
 C          5.9646624244       -1.4655791050        1.6343069949
 C          6.2568510838       -1.1475337473        0.3080165507
 N          5.7932552262        0.0475403414       -0.2541276094
 C          6.6044243230        0.7598427051       -1.1443170442
 C          7.9850493861        0.8146215567       -0.9539534292
 C          8.7829394934        1.5123134157       -1.8395745481
 C          8.2216845703        2.1725766089       -2.9203434360
 C          6.8504842570        2.1257663187       -3.1111960629
 C          6.0450012179        1.4232144516       -2.2362832685
 C          4.5277224666        0.5309979616        0.0864068449
 C          3.4668225221       -0.3493063875        0.3034490593
 C          2.2225594912        0.1268974344        0.6570603909
 C          1.9908485575        1.4938546793        0.8045283379
 C          0.6672346498        1.9872806912        1.2068537477
 C          0.5408182613        3.0439711474        2.1062849391
 C         -0.7113980586        3.4952278307        2.4841347495
 C         -1.8504409050        2.8867520941        1.9950731697
 C         -1.7448127875        1.8127946476        1.1096825860
 C         -2.9750677065        1.2002457193        0.6342730010
 N         -4.0899984437        1.8688272391        0.4734652728
 C         -5.0068012827        0.9716850597        0.0284313376
 C         -6.3640494549        1.2119322540       -0.3245597328
 C         -6.9157280825        2.4951956645       -0.2507514720
 C         -8.2190978068        2.7119689553       -0.6215356379
 C         -8.9880035077        1.6421591017       -1.0755969796
 C         -8.4572184332        0.3755029035       -1.1473535999
 C         -7.1314306723        0.1117602231       -0.7702835767
 C         -6.5509609333       -1.2194179131       -0.8069544803
 C         -7.3070536026       -2.3398139865       -1.1795428281
 C         -6.7791430875       -3.6091026579       -1.1824912335
 C         -5.4602331266       -3.8168658770       -0.7919184688
 C         -4.6834414828       -2.7459871345       -0.4246051169
 C         -5.1943723211       -1.4401542229       -0.4406062723
 C         -4.4332693789       -0.2950915117       -0.0724781534
 N         -3.1214232947       -0.1322253957        0.3112341968
 C         -2.1034872888       -1.1036068382        0.3793173501
 C         -1.6165457026       -1.6849929060       -0.7883305728
 C         -0.5928575895       -2.6114334661       -0.7171292658
 C         -0.0504368134       -2.9572546940        0.5106217556
 C         -0.5353800684       -2.3765669609        1.6713131837
 C         -1.5609378878       -1.4497504635        1.6111988793
 C         -0.4837424396        1.3884215240        0.7044914196
 C          3.0509397022        2.3694801169        0.5763138782
 C          4.2986926651        1.9007350144        0.2231969783
 C          7.0192705147       -2.0367905680       -0.4489915862
 C          7.4790327961       -3.2121245787        0.1123209685
 H          7.5402346799       -4.4461786280        1.8625654017
 H          6.1908574457       -2.8792556920        3.2132192593
 H          5.3813013478       -0.7775402840        2.2284726752
 H          8.4244234781        0.3089770910       -0.1066456054
 H          9.8503766484        1.5474398145       -1.6791215489
 H          8.8479712058        2.7194562966       -3.6083819310
 H          6.4040480031        2.6335346737       -3.9534874564
 H          4.9771633331        1.3802772861       -2.3930340288
 H          3.6278545897       -1.4118094221        0.1946610072
 H          1.4204881759       -0.5733071801        0.8371287345
 H          1.4271425108        3.5030112470        2.5186438128
 H         -0.7980794588        4.3220807433        3.1736719435
 H         -2.8330459312        3.2237490171        2.2841851563
 H         -6.2829908209        3.2964051920        0.0977793828
 H         -8.6485513746        3.7014072119       -0.5683439233
 H        -10.0127783716        1.8085503203       -1.3748728111
 H         -9.0899789734       -0.4200901625       -1.5071223810
 H         -8.3386250997       -2.2185204000       -1.4674501418
 H         -7.3930973069       -4.4474658221       -1.4768688277
 H         -5.0493246509       -4.8154560320       -0.7731586097
 H         -3.6678926710       -2.9155469721       -0.1051179938
 H         -2.0469397861       -1.4061181060       -1.7391525789
 H         -0.2143870603       -3.0604036066       -1.6230096612
 H          0.7528846222       -3.6765806264        0.5615939651
 H         -0.1126767769       -2.6440831736        2.6280155970
 H         -1.9417302231       -0.9861991939        2.5088905888
 H         -0.3822071877        0.6102907872       -0.0353732643
 H          2.8922266783        3.4338807843        0.6668777447
 H          5.1100780144        2.5937928299        0.0563626874
 H          7.2452425894       -1.7988327630       -1.4780698150
 H          8.0671341558       -3.8923738021       -0.4856598305
