79
 energy: -120.945698982139 gnorm: 0.000123128102 xtb: 6.7.1 (edcfbbe)
C            9.29497673122903        2.16233970300374        0.21254408937480
C            8.23972367773465        2.48168037024754       -0.62778737224097
C            7.08873223540695        1.71787482452420       -0.62619862983099
C            6.97714749603882        0.61935339854549        0.22769401208330
N            5.81058995486256       -0.15534610228572        0.23606809767017
C            5.89991276187166       -1.54439214865882        0.38074986787786
C            6.94761810880567       -2.24954531054530       -0.21426938174156
C            7.03589302724443       -3.62000091128729       -0.06503775703597
C            6.08347522083456       -4.30901657131743        0.66973569572206
C            5.03957713875213       -3.61377118857904        1.26018982572418
C            4.94538519523663       -2.24247544979277        1.12305607404775
C            4.56488854010898        0.45721964029751        0.10539031348331
C            4.32815895900480        1.71927004706853        0.65855148983689
C            3.09527106792959        2.31935963981545        0.52865039733915
C            2.04823673218051        1.68359074483319       -0.14365896756290
C            0.73018512175752        2.31044829070964       -0.26860611510555
C            0.61383471832871        3.70118297190124       -0.45962943847512
C           -0.64869151199694        4.28416752054170       -0.54102714740693
C           -1.78300242649191        3.52098104953161       -0.46205971478804
C           -1.70034771614686        2.10159734133026       -0.30955682736222
C           -2.90680515216725        1.38507707389348       -0.23324293208965
N           -4.08839516121072        1.99907155280223       -0.01764355780383
C           -4.99891359169303        1.04993166383662        0.11840082136831
C           -6.38457046680267        1.21429813938694        0.41589490267477
C           -6.91715670301006        2.48223298431043        0.65326339854815
C           -8.25227139951063        2.63389894827227        0.97254271083027
C           -9.05592164669427        1.50646237220552        1.06257403584839
C           -8.53889707550863        0.24592810436139        0.82459242502465
C           -7.19254839849476        0.05396440582707        0.48580632910884
C           -6.62612457440899       -1.25181293991823        0.19699488814350
C           -7.41630223730063       -2.40020487119243        0.16675890802901
C           -6.90527530595834       -3.64624822768899       -0.13836598280553
C           -5.54862656787826       -3.78554543997341       -0.44976750382291
C           -4.72970449612223       -2.69224539716310       -0.42830718571609
C           -5.21960297811621       -1.40244720922873       -0.09333185025429
C           -4.42614245644136       -0.25292206954622       -0.06259917755510
N           -3.08405671382451       -0.02191802337881       -0.28151302278560
C           -2.08651913686451       -0.95221406732552       -0.60594552357080
C           -1.45306470035322       -0.88707589588273       -1.84805253452773
C           -0.45166129333240       -1.78724954002099       -2.15791634043924
C           -0.06935397337584       -2.75476675215197       -1.23999915363585
C           -0.69771618164588       -2.82075621097775       -0.00480707667389
C           -1.70227070985291       -1.92826242543638        0.31584551395464
C           -0.40970798085750        1.53522747098181       -0.19615008754050
C            2.29331573360352        0.42284761077954       -0.69547367806611
C            3.52597322113591       -0.17894005443587       -0.58108209093443
C            8.04183696835864        0.30235350092048        1.07262809701064
C            9.19046413605203        1.06966924181492        1.05921571729821
H           10.19335723454600        2.76077742386574        0.20708109989406
H            8.31616809998765        3.32713817409475       -1.29548742750654
H            6.27186518967593        1.95941712874826       -1.29025387300942
H            7.68283843377800       -1.71632664937355       -0.79874492415029
H            7.84901970238535       -4.15478821156890       -0.53327600792155
H            6.15466956651703       -5.38027692861622        0.78227134072601
H            4.29741672959401       -4.14186547170196        1.84054699006668
H            4.13930300820467       -1.70124675302198        1.59624122748994
H            5.11604646302214        2.21596529743825        1.20552961346640
H            2.92606699671757        3.28223517988814        0.98682642102300
H            1.49965126501155        4.30907955750988       -0.55612761333502
H           -0.73049184409372        5.35410423907291       -0.67236932665187
H           -2.76523229786144        3.96070452484805       -0.52430823810385
H           -6.25323848403955        3.33040792904435        0.58377486029730
H           -8.66367182150006        3.61529753286051        1.15519310857051
H          -10.10030340637268        1.60960610585225        1.32076860537829
H           -9.20501394180014       -0.59756344271540        0.91099837365115
H           -8.47166612173612       -2.32842477750760        0.37714254616038
H           -7.55468914491410       -4.50870281690448       -0.14917464192699
H           -5.15151632968408       -4.75535434173452       -0.71248197339752
H           -3.69023988897740       -2.80259742353766       -0.68950718578521
H           -1.75320881269703       -0.12621255212985       -2.55396100008532
H            0.03097662909617       -1.73558554905675       -3.12309243450910
H            0.71692120616595       -3.45257713709220       -1.48469384766791
H           -0.39988190798617       -3.56865817404650        0.71508260622460
H           -2.19416566800862       -1.96949931602673        1.27722705459998
H           -0.30773221654251        0.48484619760411        0.02037476465348
H            1.50925834542703       -0.07648997066767       -1.24468542184539
H            3.70117156930790       -1.14281149020254       -1.03554055413589
H            7.95641439527650       -0.54062427521920        1.74242714669401
H           10.00608814784539        0.81804405173891        1.72091958132589
