79
 energy: -121.038203793188 gnorm: 0.000047578415 xtb: 6.7.1 (edcfbbe)
C            7.25046581951879       -3.52049584821702        1.37660752030175
C            6.48375868530907       -2.66221187372003        2.14839679622648
C            6.00579313042269       -1.47985543689815        1.61674405039708
C            6.28196644808908       -1.14204734097407        0.29160967905361
N            5.80011541605240        0.05479529333654       -0.25383455983529
C            6.59702996407931        0.78233763560145       -1.14788705646612
C            7.97520555327416        0.87399263898859       -0.95350845965119
C            8.75823903941910        1.58518750417466       -1.84243423507845
C            8.18330785870414        2.22254579320551       -2.93027057469506
C            6.81387110340307        2.13928693672246       -3.12497088934733
C            6.02376018156211        1.42277937203883       -2.24657021823847
C            4.53410444180643        0.52847782858250        0.10056753560371
C            3.47790613534530       -0.35742997787546        0.31981560074188
C            2.23290343407321        0.11252965834616        0.68043342842123
C            1.99498824855163        1.47808231743150        0.83346307587270
C            0.66857936481142        1.96598317272026        1.23617035558347
C            0.53620073102161        3.02299427223260        2.13507939788787
C           -0.71823719143556        3.47194801526698        2.50896764367403
C           -1.85499664196984        2.86431759886624        2.01223318512247
C           -1.74445236865369        1.79200471488338        1.12505929372157
C           -2.97185292264224        1.18526981410209        0.63225658743816
N           -4.07588914017532        1.86732524386461        0.44351651259767
C           -4.99625142458947        0.97425043626630       -0.00675438503101
C           -6.34504665430160        1.22742898436672       -0.38339920458886
C           -6.88349180180884        2.51808970641721       -0.33262250453899
C           -8.17986103205250        2.74583673595721       -0.72231282317787
C           -8.95542113463337        1.67926797803910       -1.17376181364381
C           -8.43804598947725        0.40571162413713       -1.22365161396469
C           -7.11993386896823        0.13070613195326       -0.82626445517887
C           -6.55440542372809       -1.20799068991550       -0.83867185001604
C           -7.31826495301371       -2.32456725713195       -1.20908988383712
C           -6.80520627977026       -3.60013817682059       -1.18955518815368
C           -5.49315182361491       -3.81826668984552       -0.78077440366296
C           -4.70921285158987       -2.75139786986547       -0.41594978247727
C           -5.20549409794550       -1.43995096487036       -0.45028028731988
C           -4.43636346052186       -0.29988281201456       -0.08105293245864
N           -3.12806877661809       -0.14755870052925        0.32266537489009
C           -2.12098267432351       -1.13280938438514        0.42727081264644
C           -1.59648320415377       -1.71687879342653       -0.72253274739115
C           -0.58812188886485       -2.65722865797089       -0.61369741500492
C           -0.09936633513838       -3.01318606442153        0.63381986281874
C           -0.62116582753356       -2.42838512493315        1.77634957903907
C           -1.63192802579591       -1.48774237051284        1.67867364760053
C           -0.48074493165862        1.36546847364514        0.73022319121697
C            3.05081137968074        2.35935524051644        0.60474427414347
C            4.29938551507291        1.89686875043939        0.24528185316859
C            7.04979956909872       -2.01238736606725       -0.48243008200922
C            7.53204933377414       -3.18752836676384        0.06133450090829
H            7.62663063087369       -4.44118812426718        1.79683983710592
H            6.26402187552457       -2.90972628530840        3.17693066501997
H            5.41812165842456       -0.80762447570975        2.22498733890218
H            8.42521541957784        0.38541750059417       -0.10139743050731
H            9.82431875123720        1.64897167823958       -1.67906342628129
H            8.79799948549723        2.78028729113846       -3.62083050959596
H            6.35709711684773        2.62899464105465       -3.97287489946574
H            4.95750534843904        1.35180577905015       -2.40605913924582
H            3.64245176467716       -1.41892370766816        0.20607751102666
H            1.43355879335211       -0.59099596784241        0.86049336574159
H            1.41943053004029        3.48459664102479        2.55099640255919
H           -0.81004072192854        4.29623795349907        3.20115477827222
H           -2.83909037795760        3.20107696402512        2.29891511464290
H           -6.24643728411176        3.31721407781637        0.01517124228439
H           -8.59763526033288        3.74129473877165       -0.68482844327160
H           -9.97473651145328        1.85370578068375       -1.48746520891590
H           -9.07518163269861       -0.38703937002119       -1.58217035054542
H           -8.34415216017666       -2.19434111449414       -1.51334499804613
H           -7.42581422467457       -4.43452284315778       -1.48200193250635
H           -5.09284234286351       -4.82086286792099       -0.74643152775211
H           -3.69765325648849       -2.92589214376610       -0.08648201013637
H           -1.98431564639053       -1.42855327104605       -1.68909407464290
H           -0.18017390219103       -3.10754740687991       -1.50601303248449
H            0.69164764542618       -3.74334400337502        0.71446009429595
H           -0.23994673656688       -2.70214105619969        2.74854648131627
H           -2.04307713141755       -1.02216677842235        2.56230435780259
H           -0.37755797200895        0.58263121258430       -0.00491672970185
H            2.88871602846657        3.42300644814819        0.69937941002464
H            5.10638447036956        2.59516475616524        0.07704497905259
H            7.26389529148311       -1.76011261622515       -1.51096867573578
H            8.12516332174948       -3.85231531004521       -0.54992445375303
