66
 energy: -110.556182517698 gnorm: 0.000080599997 xtb: 6.7.1 (edcfbbe)
O           -0.30525022523990        4.27534890426727       -2.11416714466709
S           -0.33959142674011        3.84578025398977       -0.73983225305398
O           -0.49763888630228        4.84839781429087        0.28193419122557
C            1.09679203600514        2.83889175591992       -0.41438385053563
C            1.32890902050186        2.41227993244511        0.88921946263139
C            2.23041340732669        1.39929681555188        1.12575450562093
C            2.88569073046657        0.79755522811239        0.04520690585182
N            3.71244594318450       -0.33950759660881        0.26103366599372
C            3.19994009846723       -1.58217275110814        0.00073114958147
C            1.86411195444429       -1.79910379322670       -0.37226820532299
C            1.41115027983169       -3.06041303852150       -0.64990142920298
C            2.28891452614761       -4.17429416009977       -0.57582816778254
C            3.59795252602516       -3.99788386893201       -0.20074118879627
C            4.07925189116293       -2.72650198923719        0.10435237132906
O            5.36309921031466       -2.58821805027342        0.48883013918573
C            5.83838724523176       -1.36349630062493        0.78697619521872
C            7.16894677351125       -1.23398796537746        1.18362851763943
C            7.68891963631562        0.00187775784573        1.47589304253967
C            6.87916120758269        1.16167664307433        1.36459950835232
C            5.57224679334070        1.06237260052302        0.96647199708901
C            5.00659287112169       -0.18655390218579        0.67803011025318
C            2.68384416728757        1.25741053194505       -1.25901726963082
C            1.78868360954944        2.27789085911443       -1.48562276197660
C           -1.60738421353875        2.59303810165894       -0.51735335375151
C           -2.64012443911244        2.80548107479487        0.38874933955526
C           -3.55909271641664        1.80957390703943        0.66023107695533
C           -3.39697774872268        0.58476100525475        0.02394537635646
C           -2.34991648966926        0.37567936541021       -0.91123538476510
C           -1.45246342980880        1.39570469286226       -1.18442994036271
C           -2.48189247991084       -0.97418918279469       -1.37904190504271
C           -1.74438764691625       -1.75534236350833       -2.25970046530359
C           -2.13335604283974       -3.06450052143214       -2.46331182774381
C           -3.23300878995362       -3.59790456504221       -1.79406875267114
C           -3.98156425331161       -2.83952466628156       -0.91376601916858
C           -3.60735651152182       -1.51760773333652       -0.71856844534992
N           -4.15043708504095       -0.56361460367158        0.12062168127908
C           -5.28356952355982       -0.73902351127597        0.93170394554957
C           -5.22975500368961       -0.42718775313791        2.28667719523140
C           -6.35081269535746       -0.59753888434468        3.07784432300102
C           -7.52491717569817       -1.08731362102187        2.53008595260556
C           -7.57731072298096       -1.40361266384669        1.18260715765899
C           -6.46459573585244       -1.22727282765856        0.38116173499791
H            0.78320363864407        2.88218423202768        1.69192805953484
H            2.41896903068598        1.04073609995420        2.12641194803260
H            1.19361921499062       -0.95501860260247       -0.42911386200515
H            0.38007805630204       -3.21305624049536       -0.92574031458115
H            1.91841899470928       -5.15879803144296       -0.80898248349811
H            4.28071690483452       -4.82983865842399       -0.12651590412884
H            7.76726981990408       -2.12897368881167        1.25189228466731
H            8.71639205597861        0.09921221933344        1.78560820709969
H            7.30261723052739        2.12627792373148        1.59182742141989
H            4.95755714768662        1.94436153733145        0.87065317236606
H            3.21736065487116        0.79138970832543       -2.07401761650186
H            1.59268564373271        2.65517510424955       -2.47683673898936
H           -2.69944981085348        3.76848356344989        0.87026614792367
H           -4.37591170635594        1.98162133171092        1.34398215690956
H           -0.65177224853841        1.26622967476048       -1.89528762244441
H           -0.88436614314474       -1.34424971374123       -2.76626021508211
H           -1.57582523720564       -3.68995983187383       -3.14461606046954
H           -3.50470127050802       -4.62913201116658       -1.96412276336957
H           -4.82126609427996       -3.26735034334278       -0.38755859993630
H           -4.30618951506359       -0.06619472951429        2.71385140266186
H           -6.30477835480157       -0.35364201996795        4.12873419945914
H           -8.39694072743135       -1.22198103288499        3.15171841510945
H           -8.49191866329585       -1.78183325639511        0.75087673833982
H           -6.50667724768613       -1.45197974168538       -0.67408900693697
