  66
       -110.55267368
 O         -0.2925574668        4.2577485624       -2.1316426292
 S         -0.3361699634        3.8379112883       -0.7543646349
 O         -0.4986269980        4.8475415748        0.2599222796
 C          1.0963473557        2.8322826840       -0.4146069856
 C          1.3276460408        2.4176777245        0.8935066092
 C          2.2277320249        1.4065338955        1.1407347263
 C          2.8829089469        0.7925394024        0.0659384925
 N          3.7097054614       -0.3422659296        0.2902284070
 C          3.2030278734       -1.5854090158        0.0236484725
 C          1.8652745553       -1.8067213771       -0.3388381948
 C          1.4189751678       -3.0680368190       -0.6302537008
 C          2.3053567702       -4.1743523887       -0.5837294699
 C          3.6176791394       -3.9938193707       -0.2203709800
 C          4.0916512696       -2.7239183220        0.1007531233
 O          5.3787863996       -2.5801949340        0.4709673363
 C          5.8472921788       -1.3565679038        0.7831997402
 C          7.1826773317       -1.2219164105        1.1619477920
 C          7.6957758637        0.0141034237        1.4669885126
 C          6.8755751430        1.1669560380        1.3862785315
 C          5.5638008770        1.0630534312        1.0020086980
 C          5.0051869597       -0.1854199250        0.7017501089
 C          2.6803268638        1.2388795104       -1.2436865845
 C          1.7879205804        2.2583405208       -1.4803811808
 C         -1.6072990718        2.5892666494       -0.5314880593
 C         -2.6366156757        2.8035338243        0.3783733406
 C         -3.5559732089        1.8088665672        0.6536338138
 C         -3.3982681067        0.5840244303        0.0168449381
 C         -2.3556726649        0.3733785689       -0.9233447421
 C         -1.4568922793        1.3916430513       -1.1990758588
 C         -2.4934819435       -0.9752689723       -1.3925889399
 C         -1.7636060668       -1.7563733693       -2.2799830649
 C         -2.1585410158       -3.0634509929       -2.4861633793
 C         -3.2557276154       -3.5954229482       -1.8119950956
 C         -3.9962195467       -2.8373433311       -0.9241293285
 C         -3.6171784596       -1.5171090691       -0.7275448459
 N         -4.1536962977       -0.5632501951        0.1161203072
 C         -5.2827621499       -0.7369897215        0.9326660397
 C         -5.2227965785       -0.4219446683        2.2867534942
 C         -6.3400114985       -0.5906689559        3.0835831027
 C         -7.5166685040       -1.0821110587        2.5427230383
 C         -7.5753542711       -1.4014097310        1.1962120700
 C         -6.4666229430       -1.2265801754        0.3890643283
 H          0.7822331407        2.8962852134        1.6912457673
 H          2.4154046410        1.0574181822        2.1449307120
 H          1.1882678566       -0.9669513022       -0.3763755541
 H          0.3859542032       -3.2240295909       -0.8970806550
 H          1.9407377257       -5.1581251319       -0.8289345629
 H          4.3077625465       -4.8212812177       -0.1678646065
 H          7.7898505385       -2.1124248108        1.2065320846
 H          8.7271698308        0.1151341544        1.7625158012
 H          7.2929622228        2.1315273727        1.6243183426
 H          4.9415735406        1.9413355016        0.9263729337
 H          3.2136203875        0.7635690159       -2.0534985498
 H          1.5934988892        2.6272568684       -2.4749785349
 H         -2.6928554680        3.7667607545        0.8594569772
 H         -4.3698130923        1.9823646353        1.3405114166
 H         -0.6584494914        1.2607459584       -1.9122062150
 H         -0.9053891386       -1.3464258268       -2.7903797717
 H         -1.6077967728       -3.6882383367       -3.1737903926
 H         -3.5324777138       -4.6249746593       -1.9842374536
 H         -4.8339309159       -3.2643829573       -0.3941475334
 H         -4.2973657925       -0.0598877465        2.7089539475
 H         -6.2890194833       -0.3440330110        4.1336044619
 H         -8.3857464906       -1.2151721929        3.1687806328
 H         -8.4918678124       -1.7811675895        0.7696971252
 H         -6.5139877777       -1.4531777215       -0.6654940513
