66
 energy: -110.556117496415 gnorm: 0.000063999676 xtb: 6.7.1 (edcfbbe)
O           -0.30980696673379        4.30846334612790       -1.80361746317204
S           -0.36872227157819        3.77528471917926       -0.46656929042247
O           -0.56823080193385        4.70104326234330        0.61888400348665
C            1.08468850210494        2.77988277602728       -0.18057920546679
C            1.23977573359291        2.18352572288898        1.06767629457257
C            2.18428394954711        1.19743401666360        1.23829244567441
C            2.97097913237334        0.80226250032022        0.14992876875159
N            3.85920502091292       -0.29958280109536        0.28633146720086
C            3.34457203416025       -1.57035135852129        0.25806009033446
C            1.97454429434263       -1.84322330367270        0.13664761006941
C            1.51689414597216       -3.13368207651744        0.09290914861691
C            2.42497508438104       -4.22229062047310        0.15705226596373
C            3.77349232955947       -3.98972167217247        0.25942541566399
C            4.26376590530448       -2.68524758176333        0.31205152649391
O            5.59487332476759       -2.49439099507252        0.39057827042225
C            6.08452841277316       -1.24008530648456        0.42637246899714
C            7.46326286532984       -1.05384286197891        0.49969778771405
C            7.99174513308577        0.21235401408313        0.54798303038407
C            7.13468403203716        1.34461651773076        0.53012397562935
C            5.77751522109415        1.18929231368601        0.44925913056923
C            5.20656783426705       -0.09063901273066        0.38594766857946
C            2.84680449569354        1.43789872315987       -1.08960804916371
C            1.89664154904247        2.42065803679306       -1.25301910025115
C           -1.64692816250685        2.51258846346302       -0.36839961962365
C           -2.83622695959734        2.79535789555987        0.29294789643250
C           -3.80876433745178        1.82541783316234        0.44793886696908
C           -3.54505393888027        0.55576464387776       -0.05171613623541
C           -2.33641032169051        0.27423790743550       -0.73925551500262
C           -1.38473065924487        1.26949089707546       -0.90373240930357
C           -2.39476795253743       -1.10656782201291       -1.12334481182656
C           -1.50865260914842       -1.95453077686932       -1.77614241198168
C           -1.87108473090777       -3.27453776694029       -1.95515792164672
C           -3.09241001599726       -3.75295625836696       -1.48457749001672
C           -3.98980977549722       -2.92789546069401       -0.83305236773349
C           -3.63936487886565       -1.59587168353150       -0.66498410226865
N           -4.32285821270675       -0.57971561733882       -0.02493342758191
C           -5.60182040815401       -0.68925870425723        0.54551832725416
C           -5.82217405702660       -0.27768353647538        1.85614402778988
C           -7.08542497862727       -0.38431905395514        2.40825272133441
C           -8.13060669162527       -0.90868127465557        1.66596855633343
C           -7.91040282622136       -1.32390979802512        0.36307683275988
C           -6.65313423885419       -1.21214092569992       -0.20113191980121
H            0.60277639622827        2.50223700743001        1.87732368672762
H            2.31462412620267        0.70732419294385        2.19127755568643
H            1.27890931329855       -1.01997492430104        0.08035131429967
H            0.45997547511951       -3.32629222077966        0.00260644683765
H            2.04859095070938       -5.23123607733333        0.11893702478063
H            4.48501779911507       -4.79956506979701        0.30009068650645
H            8.09329484090433       -1.92927940824073        0.51990399746864
H            9.05827267391435        0.35431274960670        0.60444567564557
H            7.56327824375354        2.33209442412056        0.58199630248020
H            5.12435400438130        2.04851324288549        0.43708371720272
H            3.47817727216638        1.13005959905797       -1.90968299876560
H            1.74414208205652        2.91566697383444       -2.19893569598927
H           -2.97283351899797        3.79064574205073        0.68455421661523
H           -4.74197977390351        2.05110281021621        0.94023087689593
H           -0.46373916038470        1.08029112431235       -1.43255184863344
H           -0.55673713736946       -1.58635467097383       -2.12760934899813
H           -1.19760671141945       -3.95129039699090       -2.45958553336314
H           -3.34209684813286       -4.79368279074402       -1.62841661987152
H           -4.92569151376681       -3.31235009028103       -0.45705134460013
H           -4.99984202118538        0.11061352508951        2.43812807704091
H           -7.25234555804042       -0.06318591100534        3.42556815223335
H           -9.11446871305727       -0.99333635022330        2.10168501465292
H           -8.72350197125526       -1.72936971155853       -0.22038564248023
H           -6.48088695372225       -1.51455762320384       -1.22325215392666
