  66
       -110.64816043
 O         -0.2949387581        4.2966528409       -1.7482122002
 S         -0.3807358508        3.7551592726       -0.4175788860
 O         -0.5665069041        4.6756752937        0.6728762192
 C          1.0671264525        2.7289959077       -0.1253668807
 C          1.1202061146        2.0110137137        1.0555305265
 C          2.0865801927        1.0370776080        1.2136196938
 C          2.9898586944        0.7825830524        0.1819126755
 N          3.8937549420       -0.2921235619        0.3022745346
 C          3.4080577577       -1.6035134470        0.3093905444
 C          2.0560608288       -1.8967076297        0.1817630083
 C          1.6098235499       -3.2100053698        0.1853953592
 C          2.5088919970       -4.2496934585        0.3075714578
 C          3.8650551382       -3.9745455235        0.4084795946
 C          4.3152484331       -2.6673616688        0.4024221215
 O          5.6719802482       -2.4741761695        0.4765205173
 C          6.1343190008       -1.1823610401        0.4088391446
 C          7.5042278334       -1.0012746274        0.4421955384
 C          8.0418836445        0.2772241335        0.4074338296
 C          7.2005064094        1.3698265567        0.3524070495
 C          5.8253639451        1.1940967981        0.3155728884
 C          5.2740237949       -0.0801191774        0.3247841696
 C          2.9605469890        1.5506625856       -0.9798715900
 C          1.9879602647        2.5221348128       -1.1342239044
 C         -1.6680154449        2.5042239726       -0.3379147555
 C         -2.8605377234        2.7914916791        0.3147149096
 C         -3.8436285552        1.8297681869        0.4468171906
 C         -3.5853356550        0.5626723006       -0.0643093672
 C         -2.3719165317        0.2770289863       -0.7418692365
 C         -1.4111483133        1.2660479739       -0.8878809323
 C         -2.4382358110       -1.1004354903       -1.1383038253
 C         -1.5514072256       -1.9525873737       -1.7845975919
 C         -1.9255405922       -3.2666407203       -1.9799015394
 C         -3.1594354957       -3.7354013046       -1.5319116277
 C         -4.0561953515       -2.9072859545       -0.8845642820
 C         -3.6925681200       -1.5810359082       -0.6986520085
 N         -4.3732584143       -0.5636972019       -0.0568648003
 C         -5.6535474852       -0.6717210480        0.5134650339
 C         -5.8666093240       -0.2854938507        1.8326678302
 C         -7.1292125811       -0.3940701303        2.3861215561
 C         -8.1801343411       -0.8946884870        1.6356964952
 C         -7.9670757256       -1.2835782848        0.3236275649
 C         -6.7102115529       -1.1699441722       -0.2416727059
 H          0.3955445726        2.2158840834        1.8280925344
 H          2.1357732045        0.4475965216        2.1167186820
 H          1.3412243103       -1.0953719086        0.0762948073
 H          0.5527042596       -3.4054226904        0.0871465690
 H          2.1680977916       -5.2728662027        0.3159728277
 H          4.5942852117       -4.7646985806        0.4886972144
 H          8.1341997202       -1.8743417908        0.5014450309
 H          9.1119937341        0.4087308422        0.4330984913
 H          7.6044078254        2.3702007288        0.3410320536
 H          5.1750612480        2.0545604734        0.2887289442
 H          3.6743554362        1.3550182207       -1.7661354983
 H          1.9049559040        3.1059377496       -2.0378181683
 H         -2.9903497799        3.7829705073        0.7184251927
 H         -4.7799418741        2.0571457624        0.9322074607
 H         -0.4880198538        1.0767431183       -1.4130565371
 H         -0.5901264563       -1.5926397262       -2.1184831114
 H         -1.2520830699       -3.9467477568       -2.4793545931
 H         -3.4186082565       -4.7716136446       -1.6900608448
 H         -5.0014081335       -3.2841016688       -0.5246806993
 H         -5.0395240662        0.0842169633        2.4201114611
 H         -7.2907344254       -0.0936698679        3.4105135437
 H         -9.1632290707       -0.9815757741        2.0725871653
 H         -8.7847855460       -1.6703683537       -0.2658889677
 H         -6.5427653630       -1.4527297345       -1.2701764747
