66
 energy: -110.647923630513 gnorm: 0.000083079795 xtb: 6.7.1 (edcfbbe)
O           -0.00457565065949        3.08056236146996       -3.38032455300116
S           -0.01253695943904        3.16293645841583       -1.94332260579040
O            0.04997683065681        4.46212498234812       -1.32655622360266
C            1.34823551431445        2.16995874066978       -1.31475057542593
C            1.82659987661576        2.40801283514028       -0.04013050491780
C            2.83632090484473        1.61292208566536        0.46845221919077
C            3.36446128976078        0.58030656530727       -0.30578647768624
N            4.39367002278626       -0.23155466133948        0.20926762577492
C            4.19633709365057       -1.60504099894076        0.38131691437742
C            2.97669915643733       -2.21828821301011        0.12448362428911
C            2.81421808446837       -3.58305110020263        0.31042813484255
C            3.86299391345097       -4.35499763233999        0.76661814509106
C            5.07737270041566       -3.75241314517940        1.05974847030381
C            5.24382053895831       -2.39185471158659        0.87885544302386
O            6.46202112409079       -1.86441524740396        1.22458208130095
C            6.64010944631129       -0.51392678889129        1.05313772306154
C            7.87733186051667        0.00131591778220        1.39260196870963
C            8.14608445615363        1.35049836415999        1.21676714445525
C            7.17517034067667        2.17271037096632        0.68223068909545
C            5.93173631373054        1.66134499895232        0.34242379001242
C            5.63594859246062        0.31920236252640        0.54315281986631
C            2.87546391518225        0.35475982915902       -1.59197772500429
C            1.86197135075074        1.14975446063255       -2.09280883858294
C           -1.43676466604220        2.28070620878371       -1.31245792201753
C           -1.99902196995568        2.68807264070678       -0.10818473888564
C           -3.06847638139977        2.00558822608826        0.43588645933969
C           -3.54813510818576        0.89660909808468       -0.25306359639439
C           -2.98260370379320        0.49513743521876       -1.49142251610504
C           -1.90932497806563        1.19672797697036       -2.02046304513324
C           -3.74467420981316       -0.63585886135942       -1.93934354508269
C           -3.66606706297990       -1.45980055344846       -3.05515939524451
C           -4.56876649218222       -2.49704163214175       -3.17278805023433
C           -5.53071762060128       -2.72618277751110       -2.19056155726604
C           -5.62826733716991       -1.92033465878137       -1.07259692379860
C           -4.73751791742949       -0.86239755232462       -0.95943168670703
N           -4.60310344011775        0.07043034406307        0.05170559376541
C           -5.41928307816863        0.16469247683868        1.19195803984105
C           -4.84615795593576        0.21147480120092        2.45865981544982
C           -5.65418543449118        0.30791273583453        3.57672565964781
C           -7.03190674471171        0.34837746818076        3.44133232589816
C           -7.60284038235402        0.29712171515445        2.18051952232160
C           -6.80291632487390        0.21034832233125        1.05591831075723
H            1.40858291904182        3.22143407150613        0.53138794207968
H            3.22114818621356        1.78099742784044        1.46324407875158
H            2.14263943539127       -1.62481308130131       -0.21629367777641
H            1.85665639408476       -4.03261803467270        0.09708287072969
H            3.74378221236118       -5.41750236425443        0.90783154341831
H            5.91114340291837       -4.32226060871256        1.43735836049830
H            8.61970764656177       -0.67330378704132        1.78801516328234
H            9.11302777048859        1.74418302098950        1.48702934462021
H            7.37517669885741        3.22040466080904        0.51953968113634
H            5.18943357533682        2.31243802065759       -0.09165755127233
H            3.30043156085563       -0.43742794066582       -2.19009229390510
H            1.47807122681476        1.01190772834197       -3.09115175603034
H           -1.59238240133223        3.56394083600887        0.37147372293537
H           -3.52605296832567        2.33235614806784        1.35678356330470
H           -1.46190285108486        0.93612413613221       -2.96581856266013
H           -2.91287642064516       -1.28767195927583       -3.80843362654649
H           -4.52897477811569       -3.14809913934943       -4.03295755752727
H           -6.21407682860485       -3.55441706654700       -2.30460841763604
H           -6.36655665391633       -2.11470006270850       -0.30957299397023
H           -3.77238473537802        0.15889609632570        2.55987872436564
H           -5.20564542747177        0.34401447991574        4.55824558678507
H           -7.65938898278491        0.41974047179437        4.31660085879959
H           -8.67635373704038        0.33271356827680        2.07077456467781
H           -7.24190215206505        0.19121112963379        0.06969839238634
