  61
        -90.84632813
 C          3.8939629296        0.8976028788        2.5463769169
 C          3.1364331839        1.0544171715        1.2694198711
 C          1.7779666107        1.2697732200        1.2609121445
 C          1.0760426124        1.4453757484        0.0518328916
 N         -0.2786818188        1.6533362226        0.0568711390
 C         -1.0660422271        1.6615243987       -1.1114344804
 C         -0.8715472343        2.5911264943       -2.1241011822
 C         -1.6914319668        2.5668425620       -3.2388163377
 C         -2.7032718698        1.6270425442       -3.3354133489
 C         -2.9157745900        0.7186253344       -2.3100838934
 C         -2.1114487243        0.7362408323       -1.1841083708
 C         -2.2270330663       -0.2206749321       -0.0097969575
 C         -1.0018743282       -1.1362605911       -0.0315609606
 C         -0.4481361173       -1.5999593373        1.1552862574
 C          0.6916321513       -2.3834632787        1.1397241208
 C          1.2905729059       -2.7202814570       -0.0612402055
 C          0.7310174491       -2.2813279844       -1.2480256938
 C         -0.4091874892       -1.4981106714       -1.2346103848
 C         -3.5276473266       -0.9931208671       -0.0398675664
 C         -3.5639543246       -2.3787105791       -0.0885341380
 C         -4.7769864921       -3.0474453678       -0.1159865610
 C         -5.9659025310       -2.3408309666       -0.0954841231
 C         -5.9384227751       -0.9563913541       -0.0471800382
 C         -4.7288885188       -0.2883599867       -0.0195939140
 C         -2.1180017960        0.6572623559        1.2256841042
 C         -2.9272758989        0.5654456003        2.3443979478
 C         -2.7151765739        1.3997899105        3.4309963146
 C         -1.6980516185        2.3385101854        3.4041198690
 C         -0.8738852401        2.4366663137        2.2967384975
 C         -1.0691941056        1.5814695318        1.2205834324
 C          1.7853500399        1.3715748801       -1.1632886124
 C          3.1443819601        1.1590380460       -1.1816165472
 C          3.9102858096        1.1187315929       -2.4626669995
 C          3.7981560492        0.9169108402        0.0379245257
 Br         4.7442155556       -1.2769298117       -0.0547806797
 H          4.6512663612        1.6765920819        2.6299996247
 H          4.4132637464       -0.0591719881        2.5456612195
 H          3.2334293530        0.9482452431        3.4076451384
 H          1.2462164008        1.2850740748        2.1990184162
 H         -0.0947454646        3.3346971466       -2.0279560316
 H         -1.5399605547        3.2856099480       -4.0294166721
 H         -3.3351837119        1.6020189425       -4.2098230866
 H         -3.7050976953       -0.0125303977       -2.3934816125
 H         -0.9060704901       -1.3438378704        2.0994427165
 H          1.1185126938       -2.7262640826        2.0704823740
 H          2.1893498570       -3.3161353814       -0.0721763486
 H          1.1893038414       -2.5437144392       -2.1898466316
 H         -0.8362692155       -1.1629910459       -2.1684416975
 H         -2.6430158184       -2.9413225074       -0.1055034647
 H         -4.7892206409       -4.1267054402       -0.1538201044
 H         -6.9099800040       -2.8641243027       -0.1170196362
 H         -6.8614134300       -0.3957213810       -0.0306348468
 H         -4.7103415137        0.7918723961        0.0187637886
 H         -3.7198905060       -0.1663619238        2.3740281123
 H         -3.3508441483        1.3171435074        4.2991128830
 H         -1.5457927881        2.9989693963        4.2438966599
 H         -0.0922913136        3.1803445844        2.2558949459
 H          1.2600249770        1.4658720388       -2.1003481650
 H          4.4873673850        0.1976666608       -2.5134666047
 H          4.6170868186        1.9470914872       -2.5010668751
 H          3.2477403239        1.1772037737       -3.3220616735
