92
 energy: -135.075719580759 gnorm: 0.000130158213 xtb: 6.7.1 (edcfbbe)
C           -0.71466962801985        1.62176009474801        1.87604408056320
C           -1.44764819671842        0.74478328563775        0.90526595761883
C           -2.83390062247079        0.71127326517340        0.88732733858119
C           -3.52869403825805       -0.09950697198095       -0.00270614335765
C           -5.01062657833244       -0.11435410818523       -0.00190270477843
C           -5.71599933625742        0.73000562089644       -0.86878095177087
C           -5.04736245446744        1.61660457530659       -1.75401759224153
C           -5.74241555520489        2.43444765347565       -2.59068493574062
C           -7.15268789803477        2.41665294222512       -2.59429579984568
C           -7.83173209012246        1.58251033666377       -1.76042180162459
C           -7.14586976515464        0.71337595283670       -0.87093972227881
C           -7.83344882627432       -0.14738787051251       -0.00585074897750
C           -9.31596538813313       -0.16731367570994       -0.00909836859092
C          -10.00658472233656       -1.02198500765280       -0.86200411297335
C          -11.39032154989315       -1.04166007985177       -0.86273997351147
C          -12.09835906825781       -0.20808557824449       -0.01269794266971
C          -11.41720866588941        0.64592924127051        0.83900391581571
C          -10.03352273704059        0.66693688914656        0.84173448346224
C           -7.12822704012521       -0.99053000902451        0.86246945959173
C           -7.79611387475368       -1.87447371524195        1.75102809991063
C           -7.10020093530795       -2.69127859511412        2.58812557046954
C           -5.68991409646458       -2.67597671004490        2.58852178744585
C           -5.01174918199952       -1.84355203188239        1.75237753454015
C           -5.69838017969643       -0.97374447566478        0.86429619778506
C           -2.81533956274531       -0.89404249031457       -0.89188008867800
C           -1.43310828079396       -0.86914578782482       -0.88355019410778
C           -0.74108748345899       -0.05646719258891        0.00480040770755
C            0.74106527091871       -0.05657368640634       -0.00454383988969
C            1.43307635224175       -0.86250326726047        0.88994348914880
C            2.81530011039960       -0.88735245019745        0.89847116487464
C            3.52868574040853       -0.09983184938737        0.00309202642009
C            5.01059186905714       -0.11472400943265        0.00245177058189
C            5.69851472265849       -0.97477504430812       -0.86297660992302
C            5.01208520504258       -1.84556991580868       -1.75025201884529
C            5.69042995632725       -2.67864464708803       -2.58560597005936
C            7.10071601356527       -2.69379075962836       -2.58505510185770
C            7.79644508278082       -1.87620898010336       -1.74856490587059
C            7.12836452333189       -0.99156616289620       -0.86085005770323
C            7.83342396823659       -0.14781195107662        0.00700105818763
C            9.31593948725408       -0.16780696171600        0.01063658061144
C           10.00627580022100       -1.02284756404695        0.86340097159451
C           11.39001190810044       -1.04253773402149        0.86457287484909
C           12.09833116191381       -0.20863933027102        0.01508305112114
C           11.41746355811484        0.64574039194639       -0.83647750692255
C           10.03377838056718        0.66678568803631       -0.83962288179132
C            7.14568589912656        0.71359368071049        0.87132526637168
C            7.83140525189591        1.58334150221310        1.76032085401521
C            7.15223458059150        2.41831236362750        2.59326290040396
C            5.74197484437249        2.43655565348753        2.58894408584299
C            5.04705880883993        1.61806477172804        1.75279339993995
C            5.71581991593180        0.73031483035941        0.86880737525284
C            2.83389338521309        0.70408238575337       -0.89315246053958
C            1.44764473608825        0.73772957784785       -0.91111917935706
C            0.71471296473211        1.60750323239011       -1.88839554772892
H           -0.19130654365942        1.01327042591710        2.61347963001193
H            0.03262709443773        2.22503694276165        1.36245353969519
H           -1.40413103280593        2.28090394300102        2.39801960016352
H           -3.39247525336780        1.32824942554940        1.57812252293323
H           -3.96714599870614        1.62786626043667       -1.74803527811818
H           -5.22047187454684        3.10451200436865       -3.25869156643908
H           -7.68824520405266        3.07294779839223       -3.26521033936310
H           -8.91206377196242        1.56813394101254       -1.76052092790302
H           -9.45151552657281       -1.67150979350220       -1.52436793590142
H          -11.91761996023495       -1.70948185763162       -1.52901454790861
H          -13.17865690588090       -0.22412485030690       -0.01374063722203
H          -11.96555682209191        1.29780567142484        1.50405073060315
H           -9.49939780151416        1.33213030242358        1.50570394113666
H           -8.87647034579456       -1.88544704460725        1.74800830883599
H           -7.62212888659954       -3.35876338797384        3.25873960190112
H           -5.15425290334672       -3.33262061763549        3.25902633922002
H           -3.93151067567790       -1.83041604755252        1.74900031960991
H           -3.34653576872653       -1.52953478392601       -1.58611737103112
H           -0.87767963089445       -1.49044086264821       -1.57259503224562
H            0.87765327564248       -1.47850854879449        1.58372093590243
H            3.34648111277983       -1.51747430138416        1.59759523852491
H            3.93184412533538       -1.83279705690356       -1.74677310544978
H            5.15490500409540       -3.33619426995925       -3.25532583693427
H            7.62278952766882       -3.36176722104254       -3.25506664422689
H            8.87680475882206       -1.88698092136272       -1.74549395944700
H            9.45098799798152       -1.67255377825366        1.52540397924704
H           11.91708923397474       -1.71058682825363        1.53079558723739
H           13.17862773379247       -0.22471119597060        0.01644403410377
H           11.96602992701264        1.29778703507927       -1.50117757214439
H            9.49987354328135        1.33219671127598       -1.50355298002905
H            8.91173673797337        1.56887966409693        1.76068347212393
H            7.68768243392329        3.07515903865317        3.26372093471088
H            5.21991614278903        3.10738214477299        3.25609963569734
H            3.96684823545307        1.62958251792366        1.74640975918329
H            3.39246927332626        1.31559201963814       -1.58878289086049
H           -0.03369143926999        2.21340306287861       -1.37955017228743
H            1.40401951970095        2.26386014664297       -2.41408241345556
H            0.19267992600604        0.99360298948207       -2.62229344096275
