92
 energy: -135.006195888942 gnorm: 0.000059774663 xtb: 6.7.1 (edcfbbe)
C           -0.72729675744308       -1.42379509765056        2.10140110799652
C           -1.45355258165786       -0.69722102688644        1.00885272356048
C           -2.83970130832589       -0.68358592357243        0.97003530270218
C           -3.53284831467931       -0.02484654795903       -0.03947720980168
C           -5.01279760366161       -0.02465457717323       -0.05433075818341
C           -5.71896632859198        0.76901809474307        0.86061598250496
C           -5.05044202880120        1.60109264022333        1.79709233983635
C           -5.74359219948784        2.35505816880606        2.69382001775238
C           -7.15230145126678        2.31788190546580        2.71372345975598
C           -7.83182532469861        1.54546479964129        1.82198560867298
C           -7.14904393777629        0.76116926510137        0.85489429714418
C           -7.83872939847182       -0.02090630346445       -0.08312277869059
C           -9.31846036795020       -0.01980140936160       -0.09823390698680
C          -10.01950807432780        1.09714739885329       -0.54320263111485
C          -11.40301470253086        1.09555297624090       -0.56011357439811
C          -12.10313948890624       -0.01927270774975       -0.12893049323781
C          -11.41311338869769       -1.13426714775163        0.31781383685329
C          -10.02958603617404       -1.13632737003047        0.33155101825815
C           -7.13205066347404       -0.80439351676279       -1.00727350957534
C           -7.79688231379250       -1.58560880517126       -1.98922172168732
C           -7.10119155064504       -2.35897030183829       -2.86758148760327
C           -5.69332786977923       -2.40035037789317       -2.81844318794990
C           -5.01668988696539       -1.64919484105478       -1.90684881216848
C           -5.70218901890435       -0.81609420716573       -0.98371665338081
C           -2.81480040111912        0.63547721645918       -1.03005019573314
C           -1.43312745745993        0.63662968264663       -0.99739352537089
C           -0.74336939866411       -0.02313121773867        0.01205942910838
C            0.73746348944003       -0.01089571233765        0.01369542557262
C            1.43763170435616       -1.09771077528391       -0.49836386275177
C            2.81694852841549       -1.11158824831653       -0.51299381040170
C            3.54014885709329       -0.02084738577010       -0.02234882345203
C            5.00053308267892       -0.01809082117592       -0.04112000865136
C            5.70196847668299        1.03112329522823       -0.71061796687694
C            5.02995284492272        2.03202373225926       -1.41808013477687
C            5.71500800021748        3.09145933143565       -2.01239884788789
C            7.08646522552496        3.16653765280817       -1.90603979374688
C            7.78697255038278        2.15296243207189       -1.25286185570655
C            7.12978977156531        1.05355509946438       -0.69244119095009
C            7.84803782756457       -0.02328722966547       -0.08958758409024
C            9.31060566005965       -0.02599826075876       -0.11352428902777
C           10.00839267446819        0.01599570358062       -1.32425954922230
C           11.38970124961999        0.00638992345022       -1.34425232820019
C           12.10640627564180       -0.03267160070408       -0.15815714244752
C           11.42776573191068       -0.06820828753580        1.05022851642971
C           10.04653919152647       -0.07126322374296        1.07429409553762
C            7.14691721393459       -1.09703936584075        0.53821344439334
C            7.81812846413588       -2.19969872076405        1.07510624486441
C            7.13596427130545       -3.20961958284172        1.75303670006126
C            5.76969600774000       -3.12735906384436        1.90894517479612
C            5.06918859589974       -2.06474902803769        1.33857382817642
C            5.72079778831804       -1.06832230250542        0.60619221329624
C            2.82679855068731        1.06890871963651        0.48513150174681
C            1.44330840845985        1.08786020414854        0.51550943360303
C            0.70712911418144        2.26642010297475        1.07986018602358
H           -0.27537644270956       -2.33582425079979        1.71097003147770
H            0.07464332679020       -0.80960592216112        2.50799786142646
H           -1.40924784374656       -1.69512459633503        2.90377969421135
H           -3.39992298311415       -1.19841293877033        1.73881694317766
H           -3.97080646808751        1.62534146408560        1.78285373772731
H           -5.22017915842332        2.98397455676260        3.39959503833320
H           -7.68774650137836        2.90947196143679        3.44239036580291
H           -8.91144214764719        1.51725141698252        1.83875741446150
H           -9.47155933240211        1.96573524032064       -0.88095450892550
H          -11.93660232509279        1.96764282342206       -0.91035451752539
H          -13.18341903638490       -0.01918481495870       -0.14098073655324
H          -11.95465383811825       -2.00625774254941        0.65589006223207
H           -9.48953710253691       -2.00518589201554        0.68107607466047
H           -8.87581517855824       -1.55398902009718       -2.02874958670631
H           -7.62297581860457       -2.94791067164671       -3.60821010341288
H           -5.15709206839121       -3.02985664170495       -3.51402099289441
H           -3.93750386170287       -1.67569244449591       -1.87110788346491
H           -3.34290227998989        1.15091024245739       -1.81964519905972
H           -0.87545917257404        1.15079818597444       -1.76801253602851
H            0.88618292650487       -1.93787250752008       -0.89740187087502
H            3.34711730818414       -1.95284272067937       -0.93569566375701
H            3.95608851921166        1.98466506259160       -1.51278151737232
H            5.16155333291135        3.85230929881881       -2.54304736900019
H            7.62791582700705        3.99704028404212       -2.33471510003948
H            8.86134360844606        2.22346377717768       -1.17787328123289
H            9.45284177924380        0.02759477318092       -2.25141328301445
H           11.91167691846130        0.02693345929460       -2.29046539495598
H           13.18644475561765       -0.03532170726456       -0.17530471450211
H           11.97955577015794       -0.09136507601489        1.97929208129717
H            9.52064092188355       -0.08061206382950        2.01857857397677
H            8.88866030699764       -2.27622701940348        0.96110376921109
H            7.68811807751384       -4.04299451249442        2.16203164740077
H            5.23188311281414       -3.88508057303630        2.45975418003445
H            3.99951156998997       -2.01169140514003        1.47098641616090
H            3.37765948297861        1.90506315010927        0.89347462742313
H            0.19591416960611        2.80852268348010        0.28436584523607
H           -0.05025175301300        1.94216481925543        1.79200761558603
H            1.39291406120299        2.94828469735373        1.57696821865330
