92
 energy: -135.006209375070 gnorm: 0.000186348524 xtb: 6.7.1 (edcfbbe)
C           -0.70456089912440       -1.69751481979206        1.78636059455542
C           -1.44338705000049       -0.81639131385678        0.82373294836390
C           -2.82939814581221       -0.80011385872648        0.80105184270801
C           -3.53429871109359       -0.00083131145659       -0.09316267735175
C           -5.01266841444865       -0.00022934244932       -0.08906811770092
C           -5.70938140964727        1.14207723010008        0.33334722101286
C           -5.03402812961637        2.30439154701149        0.79100687596779
C           -5.71965321259978        3.41545703859845        1.17687356582927
C           -7.12787173545262        3.43465644666928        1.12793233208445
C           -7.81470021095096        2.33258666742770        0.71950744551957
C           -7.13948485783159        1.14663403646417        0.32690141316845
C           -7.83948286645292       -0.00089010970446       -0.07181961084159
C           -9.31985326008350       -0.00133878833638       -0.06108268598201
C          -10.03428620852836        0.06444376291389       -1.25348239885012
C          -11.41789869655304        0.06744691676941       -1.24179401433464
C          -12.10393536988449        0.00015953483439       -0.04022340988922
C          -11.40007930540324       -0.06832099706174        1.15095931968773
C          -10.01645523511298       -0.06681250756044        1.14186246175772
C           -7.14391264014935       -1.14774996607402       -0.48001194490312
C           -7.82324978914069       -2.33393237664313       -0.86470813656270
C           -7.14081103252248       -3.43559088532258       -1.28155603012891
C           -5.73326634607822       -3.41581117141529       -1.34714460170353
C           -5.04354480126551       -2.30457621075729       -0.96915594942039
C           -5.71397609306655       -1.14250341175693       -0.50374820132469
C           -2.82500914257439        0.79551234276029       -0.98573190515969
C           -1.44283020772496        0.79118712855545       -0.97037265600755
C           -0.74284585131402       -0.00382095190698       -0.07194904179839
C            0.73811543396888        0.01179657936195       -0.07286800388259
C            1.44065407911689       -0.94843649397595       -0.79239459219643
C            2.82002326449673       -0.96328768272694       -0.79937704218769
C            3.54203925082017       -0.00083452208972       -0.08728536923413
C            5.00155558000126       -0.00615695894160       -0.08161186425695
C            5.72095645208733        1.16254203249419       -0.48024402382925
C            5.06907251360164        2.30063493764961       -0.96355366511593
C            5.76934235775145        3.46565672361447       -1.27530761025563
C            7.13594462903250        3.50995050383233       -1.10642329108367
C            7.81890321831827        2.36970994605735       -0.68505710265909
C            7.14764230009663        1.17276652283009       -0.41750891754101
C            7.85008642046307       -0.01999970524633       -0.06800897359475
C            9.31262071712641       -0.02769893991685       -0.05831356649754
C           10.03951523436774        0.29676586249413       -1.20759743292366
C           11.42083293940571        0.27932859677302       -1.19796797932352
C           12.10851202709756       -0.04803522423694       -0.03954089331785
C           11.40080653368129       -0.36466106969652        1.10978961793555
C           10.01943744355277       -0.36170264085971        1.10082663052087
C            7.13276015137608       -1.20614275602100        0.27381753360634
C            7.78963334702667       -2.40987507832475        0.54659800824092
C            7.09180879252549       -3.54312312239287        0.96245691611074
C            5.72445942464111       -3.48485646131250        1.12038370060257
C            5.03865404191559       -2.31277480289229        0.80286728872616
C            5.70583678732886       -1.18172493680608        0.32395177077236
C            2.82547269150633        0.96748111579858        0.62282712561464
C            1.44205464368660        0.98554239297386        0.64391406700513
C            0.70313365675197        2.03382666308267        1.42138899582441
H            0.08306038145133       -1.14289890640618        2.29408685189117
H           -1.38228871810480       -2.11234731052975        2.52871125529972
H           -0.23098456561748       -2.52174218747577        1.25237125178348
H           -3.38107198832150       -1.41717085980452        1.49727504949100
H           -3.95490558150886        2.29087662899344        0.82975245506254
H           -5.18985623262028        4.29171068826149        1.52197196509391
H           -7.65663051746958        4.32977721181286        1.42251376837278
H           -8.89429842928075        2.34433603401164        0.68663623127626
H           -9.49679295010906        0.11786910096101       -2.18998109830576
H          -11.96255080437468        0.12143968606745       -2.17363413127344
H          -13.18432887567177        0.00049413111371       -0.03217362862418
H          -11.93079320045205       -0.12216554249589        2.09085950718788
H           -9.46509556451109       -0.12033022247860        2.07021463214851
H           -8.90239410476036       -2.34616989854358       -0.81915718140989
H           -7.67261807949404       -4.33075818403273       -1.57047304976137
H           -5.20723571843154       -4.29181327679287       -1.69863715571547
H           -3.96498528333258       -2.29043643718071       -1.02108860345119
H           -3.36053415082013        1.41271321951378       -1.69302853725271
H           -0.89340445188322        1.40978642792397       -1.66651793558959
H            0.89125506414686       -1.68885690935662       -1.35740870219166
H            3.35158327801265       -1.70149968523466       -1.38240630252992
H            3.99931917664022        2.27984014629336       -1.10393261706340
H            5.23110085811442        4.32990182289657       -1.63602849366510
H            7.68744664398875        4.41587438548577       -1.31111549422340
H            8.89006891573323        2.41618973627427       -0.56111506172167
H            9.50652737697942        0.53471422467212       -2.11738678300800
H           11.96570607223145        0.52016871799424       -2.09974784389193
H           13.18859209826682       -0.05644855200048       -0.03258313283478
H           11.92991640098498       -0.61332259499310        2.01884231184027
H            9.47083218785263       -0.59199903320023        2.00325166105703
H            8.86118817302774       -2.46736577661501        0.43101080766146
H            7.63247128109238       -4.45456587315962        1.17150901116432
H            5.17448872869686       -4.34332580877451        1.47712097488823
H            3.96806335322790       -2.28117174963154        0.93476224353626
H            3.37369932559861        1.70089234232942        1.19798590522530
H           -0.07152816410702        1.58274554064583        2.03958333096604
H            1.38375124238479        2.59446721357504        2.05769218283323
H            0.21306453835272        2.73035361569818        0.74076435392457
