  92
       -135.02217223
 C         -0.7149549619       -1.5007322643        2.0392008217
 C         -1.4481365273       -0.7450584186        0.9717270307
 C         -2.8336949370       -0.7235894588        0.9433483692
 C         -3.5284767604       -0.0486917094       -0.0542073895
 C         -5.0066986698       -0.0358794363       -0.0615832908
 C         -5.7020732545        0.7068936613        0.9023017093
 C         -5.0232397955        1.4722671505        1.8868142169
 C         -5.7074017368        2.1754863568        2.8295302490
 C         -7.1164845073        2.1533321101        2.8492051782
 C         -7.8053620990        1.4478774742        1.9114854090
 C         -7.1315990112        0.7174207979        0.8973104684
 C         -7.8307347500        0.0043661809       -0.0865151415
 C         -9.3090705810        0.0277486692       -0.1012092617
 C         -9.9928497882        1.1865818116       -0.4555101709
 C        -11.3758171261        1.2067425638       -0.4710748031
 C        -12.0920727141        0.0719379937       -0.1287965758
 C        -11.4191314234       -1.0849750858        0.2270952387
 C        -10.0361951227       -1.1087217597        0.2389183183
 C         -7.1349960477       -0.7302118908       -1.0567862727
 C         -7.8110094056       -1.4408176496       -2.0834824198
 C         -7.1257585220       -2.1666805661       -3.0082260455
 C         -5.7185476252       -2.2303788907       -2.9622985901
 C         -5.0315609879       -1.5463118320       -2.0076461240
 C         -5.7059076885       -0.7606704970       -1.0361460370
 C         -2.8127360959        0.6163350732       -1.0430076557
 C         -1.4310802774        0.6100759725       -1.0193248739
 C         -0.7405748358       -0.0630603575       -0.0203865763
 C          0.7403665041       -0.0509114457       -0.0169788069
 C          1.4429011452       -1.0638839515       -0.6549140745
 C          2.8248670800       -1.0660708459       -0.6679783006
 C          3.5291792311       -0.0458397538       -0.0386917921
 C          5.0064041243       -0.0313625969       -0.0527910220
 C          5.6865114387        0.9606674567       -0.7738251362
 C          4.9939414234        1.9477575822       -1.5235708254
 C          5.6638226107        2.9180733632       -2.2026764275
 C          7.0720010714        2.9643819047       -2.1725645385
 C          7.7745438318        2.0236583165       -1.4849816887
 C          7.1159375038        0.9817991738       -0.7800346426
 C          7.8311216606       -0.0053989566       -0.0882653812
 C          9.3097161052        0.0089984686       -0.1058447887
 C         10.0052229476       -0.3156050055       -1.2662979866
 C         11.3882970287       -0.3025715844       -1.2804299243
 C         12.0926210425        0.0389787581       -0.1379461290
 C         11.4078036566        0.3653109516        1.0206297738
 C         10.0247999522        0.3484918512        1.0383329185
 C          7.1517235634       -1.0055242382        0.6207015283
 C          7.8465229198       -2.0365045492        1.3066122707
 C          7.1785173659       -2.9906933912        2.0098693523
 C          5.7709058255       -2.9692548245        2.0765779347
 C          5.0667883655       -2.0100356183        1.4165905788
 C          5.7224624924       -1.0103303422        0.6505884353
 C          2.8212043736        0.9677580983        0.5988244723
 C          1.4358746411        0.9809471084        0.6180019017
 C          0.6862447743        2.0838221752        1.3031930701
 H         -0.2826373389       -2.4106814130        1.6224793985
 H          0.1033696582       -0.9074501612        2.4434912712
 H         -1.3866401800       -1.7786660440        2.8478185931
 H         -3.3919197685       -1.2463971595        1.7078328265
 H         -3.9436615640        1.4872281617        1.8711817577
 H         -5.1768954483        2.7535800544        3.5720368734
 H         -7.6436341641        2.7043850536        3.6142087214
 H         -8.8849662276        1.4314332846        1.9266481952
 H         -9.4313791119        2.0700238533       -0.7246295536
 H        -11.8963243760        2.1110501770       -0.7510379006
 H        -13.1718233018        0.0891332271       -0.1394326565
 H        -11.9735198813       -1.9722415372        0.4963380548
 H         -9.5084550142       -2.0094169239        0.5188581255
 H         -8.8891739386       -1.3924707145       -2.1189544049
 H         -7.6546187594       -2.7019986688       -3.7831508440
 H         -5.1915939047       -2.8245620192       -3.6944946747
 H         -3.9532865259       -1.5922354176       -1.9724717572
 H         -3.3436723872        1.1429214182       -1.8228028656
 H         -0.8740783122        1.1307213699       -1.7857967117
 H          0.8954988694       -1.8542749524       -1.1490303223
 H          3.3648884776       -1.8533139715       -1.1737701425
 H          3.9152203180        1.9123343524       -1.5480864553
 H          5.1219761281        3.6618462118       -2.7684630563
 H          7.5872590526        3.7507761006       -2.7043853499
 H          8.8536469435        2.0567728420       -1.4638208456
 H          9.4529767943       -0.5833986326       -2.1558950313
 H         11.9183387783       -0.5595887871       -2.1860331404
 H         13.1724262091        0.0508164241       -0.1505951156
 H         11.9527865564        0.6342010060        1.9138530865
 H          9.4874845528        0.6051346477        1.9403220788
 H          8.9251485058       -2.0507532836        1.2573161901
 H          7.7210343633       -3.7691933318        2.5259866410
 H          5.2571881035       -3.7234252048        2.6547158849
 H          3.9884063473       -1.9935552662        1.4679780036
 H          3.3699826980        1.7584842075        1.0916668245
 H          0.0583202474        2.6157709936        0.5891632183
 H          0.0304714832        1.6813252060        2.0746066831
 H          1.3725540658        2.7917944919        1.7610856145
