92
 energy: -135.075656614334 gnorm: 0.000056455279 xtb: 6.7.1 (edcfbbe)
C           -0.71536645139775       -1.57203463337682        1.95483750184597
C           -1.44722881556311       -0.76182195744162        0.92678878139429
C           -2.83353726160506       -0.74367818816860        0.89730254579993
C           -3.53106568216378       -0.01541306294810       -0.05999811008223
C           -5.01122921718835       -0.01274030346383       -0.06649525071319
C           -5.71104286380614        0.72511547890984        0.89811219974910
C           -5.03609865510454        1.49762172251008        1.88034820313047
C           -5.72351077394240        2.19622147865197        2.82442605481600
C           -7.13276609327421        2.16264355107926        2.84733301531277
C           -7.81813397315708        1.44833370324208        1.91334672575207
C           -7.14109927046675        0.71999318052509        0.89918404560027
C           -7.83669480912690       -0.00476733616198       -0.07885498956973
C           -9.31697467911489       -0.00162431466098       -0.08500732055389
C          -10.01895027683596        1.13026171534220       -0.48819900396905
C          -11.40258999367218        1.13082097947143       -0.49596478660390
C          -12.10127739863070        0.00310564882519       -0.09722717689241
C          -11.40997671999840       -1.12695031500256        0.30771462720557
C          -10.02634952915738       -1.13104464989555        0.31216194197177
C           -7.13660212221993       -0.73308376611257       -1.05105900628996
C           -7.80870305962794       -1.45663090592603       -2.07188738313893
C           -7.11910209060269       -2.17420780356628       -3.00023737563493
C           -5.71034554153137       -2.21613387149312       -2.96461335317960
C           -5.02737323862917       -1.52219910921788       -2.01388226408648
C           -5.70666029440326       -0.74633959459588       -1.03735401935437
C           -2.81770144718280        0.70994215806535       -1.00726082240492
C           -1.43563554936669        0.70732028838430       -0.98233051960033
C           -0.74178402537148       -0.02008910461378       -0.02403303155439
C            0.74028167548197       -0.00661349862530       -0.02588665779425
C            1.43730988780781       -1.00079161222029       -0.69970943886069
C            2.81946664050096       -1.00795396795536       -0.71963653223132
C            3.53030024691486       -0.01115023918078       -0.06058445865090
C            5.00928695574221       -0.00877418777237       -0.06914762369746
C            5.70309868359347        0.97308955987189       -0.79119178857405
C            5.02400792735100        1.96325566437814       -1.54995074781672
C            5.70632772433433        2.92667883997747       -2.22699507974308
C            7.11499944348718        2.96170416015145       -2.18670100966701
C            7.80494161550994        2.01671659283315       -1.49168469897559
C            7.13322022566662        0.98248457476356       -0.78700743798746
C            7.83561406980311       -0.00835885663323       -0.08684476438426
C            9.31592515820846       -0.00945062039526       -0.09824119774100
C           10.01189877450485       -0.38938830108864       -1.24184410007278
C           11.39550792014832       -0.39252618564220       -1.25140090513901
C           12.10008110173299       -0.01238403344235       -0.12092098104738
C           11.41477404519802        0.36920823502389        1.02084739982909
C           10.03117548352323        0.36898789906603        1.03389253746221
C            7.14248056467496       -0.99853895205070        0.62339090703133
C            7.82314376516905       -2.03156036266158        1.32124581044697
C            7.14211167327274       -2.97508372195168        2.02697783312224
C            5.73404891932777       -2.94037562555663        2.08472676119620
C            5.04319020742827       -1.97850498945574        1.41417647717452
C            5.71256534485294       -0.98941993189177        0.64547112418547
C            2.82848747072992        0.98573986863632        0.60921522324951
C            1.44248597460659        1.00422539405001        0.63592970464656
C            0.70379119173647        2.09290503884598        1.35555069693933
H           -0.26521115227855       -2.44926912615260        1.48935034536277
H            0.08904518274622       -0.99287805144086        2.40531311683498
H           -1.39296646721501       -1.90741962837760        2.73649471544585
H           -3.39028927566551       -1.31128718970715        1.63062109005097
H           -3.95644535710632        1.52031157961699        1.86218513359479
H           -5.19585887697233        2.77976424507560        3.56514497845058
H           -7.66308503030785        2.71172320183358        3.61213568391815
H           -8.89787460996945        1.42366551057009        1.93071233821782
H           -9.47184255190990        2.00897119109912       -0.80009745535721
H          -11.93736074425051        2.01463980521101       -0.81343758490236
H          -13.18161637265434        0.00486486072405       -0.10210462138202
H          -11.95052785437831       -2.00895836204942        0.62038141464144
H           -9.48495906323809       -2.01167649638982        0.62855481338103
H           -8.88806616866063       -1.42540857281573       -2.09940517036750
H           -7.64559049219972       -2.71931628503531       -3.77050721244967
H           -5.17932915454849       -2.80195532660072       -3.70114763849726
H           -3.94794577062003       -1.55050406714536       -1.98671257438092
H           -3.34945972366705        1.27858421844784       -1.75686878693611
H           -0.88123503872086        1.27375369970718       -1.71792266119267
H            0.88570679466159       -1.77497426169172       -1.21503777165637
H            3.35352954557172       -1.78346752111272       -1.25010170304904
H            3.94485518710134        1.93669139273237       -1.58148771867440
H            5.17434478386061        3.67326033450083       -2.79906131573556
H            7.64094634838626        3.74273074092091       -2.71681396972474
H            8.88448751397357        2.04050992242694       -1.46413442362597
H            9.46008282156514       -0.68669684915313       -2.12266803445572
H           11.92556178867764       -0.69184281981582       -2.14434830415890
H           13.18040201372210       -0.01355138510930       -0.12962686950035
H           11.96003332276298        0.66736695674176        1.90496960763573
H            9.49448870983945        0.66742353822802        1.92361969861746
H            8.90225733790361       -2.05536576614008        1.28015503927702
H            7.67483470563684       -3.75483383992796        2.55216690032008
H            5.20941240992039       -3.68596412881879        2.66478445462992
H            3.96446323390170       -1.95248760138531        1.45813316471985
H            3.38243140382283        1.75938128448168        1.12355386128242
H            0.16367730069632        2.71653394491545        0.64308870803342
H           -0.03037753544455        1.67285046679979        2.04161193667828
H            1.39161774724187        2.72215187092933        1.91528051372670
