86
 energy: -124.614625092097 gnorm: 0.000058128012 xtb: 6.7.1 (edcfbbe)
C            9.17419035251096        2.92350447947807       -1.47635097153764
C            9.12154586285061        1.49701603426840       -2.02352659359321
N            9.35529603243894        0.51767685175473       -0.99420230613982
C           10.58415681677006        0.04277104949816       -0.60329421129390
C           11.84673213780309        0.32259363783077       -1.10993182321016
C           12.93159366943066       -0.30988066328667       -0.53379694968096
C           12.77660054040177       -1.20204442587113        0.52593004080320
C           11.52586642882199       -1.48497298492493        1.03739571226213
C           10.41885988611531       -0.86164135598156        0.47492515512004
C            9.01181853385151       -0.91104269311028        0.74628627120320
C            8.23270878189587       -1.59643515795064        1.67050367453144
C            6.86868294842550       -1.40039049403059        1.66732776612815
C            6.25341991670618       -0.53393144309269        0.75114384965901
C            4.79508292900024       -0.35574453806841        0.77679441465027
C            4.10632393265909       -0.23913823175296        1.98389999968467
C            2.73890304788404       -0.06686509309395        2.00279066222874
C            1.99409742598215       -0.02331980191972        0.81934473814738
C            0.55564113579875        0.14146831256608        0.89849662163687
C           -0.31925198203551       -0.04845653297605       -0.10096575437213
C           -1.75878711281047        0.10210000839407       -0.02039914013986
C           -2.40797564377126        0.73191144841055        1.04606837141720
C           -3.78080202886864        0.84954097466014        1.07138150001708
C           -4.56698862454340        0.32700145938144        0.04340367162704
C           -6.02988442006941        0.47347830388310        0.07528263458981
C           -6.86692561318269       -0.54104962816372       -0.24033511169211
C           -8.31736931559880       -0.34715568806700       -0.41026694454743
C           -8.81583438879190        0.70444570432377       -1.17739489126095
C          -10.17761139863716        0.86058853951033       -1.35425515895975
C          -11.06421373317263       -0.02902460447191       -0.76889740869879
C          -10.57899122218942       -1.08468951140324       -0.01433253592569
C           -9.21704508275251       -1.24773021835150        0.15795398510082
C           -6.39503732712521       -1.92261982200289       -0.43814378818803
C           -6.85900585542194       -2.67409237402404       -1.51670831162467
C           -6.43712650877981       -3.97797714910254       -1.69893290830766
C           -5.55732083663041       -4.55746313327203       -0.79922963930538
C           -5.10482291132500       -3.82528346085023        0.28676908205714
C           -5.51917308917512       -2.51918160003110        0.46735489188639
C           -6.51962637758217        1.80552959479968        0.47239424213241
C           -7.54415622027299        1.94598842207953        1.40682157321090
C           -7.98244217494969        3.20109022597114        1.78480089482076
C           -7.40487101510473        4.33617753629161        1.23889826958327
C           -6.37574974846464        4.20816071437973        0.32039031101511
C           -5.93128919421120        2.95402913494858       -0.05495261501013
C           -3.92440297080772       -0.28602969144499       -1.03254364449983
C           -2.55126580941243       -0.38935157570703       -1.06408673851936
C            2.68983598349669       -0.13713367355086       -0.38809039580884
C            4.05893055765557       -0.29535473024404       -0.40682535504002
C            7.02179122355771        0.15366592434389       -0.18145674119735
C            8.39517784360237       -0.03519332482811       -0.18068511611380
H           10.14873190377601        3.12295003460285       -1.03649233818409
H            8.99779340757572        3.63649798674318       -2.27738711524754
H            8.41553136402123        3.06161097371443       -0.70929008003290
H            9.87815860832788        1.36606096933698       -2.80177288746734
H            8.14171365709946        1.30275378573882       -2.46791116907460
H           11.98767143255161        1.01436221858163       -1.92679261392606
H           13.92374054218824       -0.10715910278337       -0.91122538698306
H           13.65059750657681       -1.67507062355183        0.94998074375176
H           11.40631713315640       -2.17617991537372        1.85885649665762
H            8.69039508581772       -2.27199747018831        2.37835533501095
H            6.24992352682544       -1.94043833433011        2.36909264621581
H            4.65615663020116       -0.26011356699477        2.91404696692727
H            2.22785725625744        0.02923010208138        2.95121110178974
H            0.18905660852761        0.41215760068547        1.88034828234168
H            0.04275057318611       -0.37702440101880       -1.06669688394589
H           -1.83060265246035        1.14899266872645        1.85725639071982
H           -4.26215564500257        1.34250311711558        1.90488166901311
H           -8.12742509637632        1.39319059713343       -1.64523725896798
H          -10.54948727716875        1.67878656686013       -1.95433908517892
H          -12.12857848673669        0.09640268252667       -0.90538443631958
H          -11.26501330233353       -1.78516915638753        0.44043835166946
H           -8.84069193124797       -2.07170682427489        0.74831641128752
H           -7.54459103759961       -2.22287401788935       -2.22067266589398
H           -6.79807158970873       -4.54566402309941       -2.54486200174499
H           -5.23018383342460       -5.57738801332696       -0.94046553738411
H           -4.42794916339584       -4.27595354154876        0.99863747501053
H           -5.17344477684727       -1.95568273810028        1.32183122413778
H           -7.98903603146870        1.06405131904428        1.84412976370809
H           -8.77739260444030        3.29457605742178        2.51087861708465
H           -7.75139539788394        5.31631048136056        1.53284851026300
H           -5.91677003209060        5.08960383897845       -0.10448420816086
H           -5.12911371159222        2.85670765156254       -0.77335657283847
H           -4.51221520460817       -0.66796251140083       -1.85458095597892
H           -2.07400499644050       -0.86409974630440       -1.91043959650401
H            2.15377281073945       -0.09135564368586       -1.32406731324872
H            4.57002092047054       -0.39536146837285       -1.35394871419154
H            6.54864142155686        0.83890969125330       -0.86845644315526
