86
 energy: -124.550688396582 gnorm: 0.000078877033 xtb: 6.7.1 (edcfbbe)
C            8.59749546777964       -3.41601521876350       -1.31520187457668
C            8.81301831470091       -2.81609091095858        0.07439672565501
N            9.21244623419325       -1.43438284670706        0.00636829524828
C           10.50370398523211       -0.97545593876444       -0.09452842171809
C           11.70008588896425       -1.68095008687456       -0.09221152357268
C           12.87671614146875       -0.96343190137388       -0.19086801290825
C           12.87598720329914        0.42683777499521       -0.29353615817615
C           11.69193288654576        1.13645242748831       -0.30080676894083
C           10.49486692417074        0.43772700905215       -0.20181217656985
C            9.11764228883178        0.83415615952464       -0.17995477723985
C            8.46597197350201        2.05993450261524       -0.24809675878838
C            7.08983422869293        2.08729927399096       -0.19024396451764
C            6.33424742615388        0.90941544320664       -0.07456980056433
C            4.87036512862904        0.97712987841850       -0.01397777132816
C            4.22504717491063        1.98559746986369        0.70588195945431
C            2.85217007126660        2.03644142984285        0.77607226269428
C            2.04683937518878        1.08748331427697        0.12554846411505
C            0.61861219254964        1.18753659935132        0.24896998815041
C           -0.30218891234072        0.34769629727166       -0.28955580535376
C           -1.71863859194038        0.43907688861756       -0.15414477882178
C           -2.37931365377209        1.44267233937450        0.58976471543144
C           -3.73881788052170        1.48669607106529        0.68523202839317
C           -4.56545638932023        0.51207326573814        0.06045566416159
C           -5.96545842512117        0.50817873571045        0.20734179898220
C           -6.72924706958062       -0.71980126233890       -0.01957293217489
C           -7.91375173569873       -0.64496376313930       -0.82282133686531
C           -8.03762556410030        0.33708445089942       -1.82578722404835
C           -9.18126052739109        0.43750414209363       -2.58517096328097
C          -10.24857840548449       -0.42480322582775       -2.36862104856811
C          -10.15543269996244       -1.38825683503878       -1.37293347666464
C           -9.01239409900445       -1.50193685829407       -0.61293578017525
C           -6.28519738140864       -1.93814846553963        0.58509927968262
C           -6.58202995016931       -3.19711189926397        0.02210010515934
C           -6.10997698689380       -4.35822301955988        0.59184618566326
C           -5.32940495676593       -4.31579666245878        1.74018156077475
C           -5.01784212544918       -3.08654440696762        2.30731479401017
C           -5.47938593950928       -1.91929575684330        1.74282226159044
C           -6.71134076928946        1.68547233861535        0.59829807809107
C           -7.87027212789225        1.56443777383604        1.38059417852997
C           -8.60339109848104        2.67549435498324        1.73850935841259
C           -8.21465502099398        3.93895852866410        1.31614202655260
C           -7.08495007714746        4.07591929632026        0.52281585744726
C           -6.34094128516150        2.96973710697877        0.16887753416184
C           -3.89523258691646       -0.50576860733519       -0.67348503806407
C           -2.53669262887128       -0.52877846687720       -0.78080777445457
C            2.70205231035920        0.08521758178577       -0.60595919378430
C            4.07559823709603        0.03221046321232       -0.66856089846601
C            6.97606881399459       -0.32375075087546       -0.01384777229154
C            8.36057962862005       -0.35741932146469       -0.06067674367447
H            9.51754610837659       -3.36960824261549       -1.89338233886942
H            8.28875632200112       -4.45445968866979       -1.22917616136458
H            7.82783898244830       -2.86355320693461       -1.84934616463941
H            9.58830434096285       -3.37322369377197        0.60685297049719
H            7.89009333382047       -2.87970745674730        0.65725220750947
H           11.72126511146166       -2.75789342219308       -0.01814602123335
H           13.81967897766659       -1.49138738481414       -0.19046008527219
H           13.81762923021220        0.95115120855413       -0.36953565747167
H           11.69167883589324        2.21361186670407       -0.38212850417118
H            9.03102637048999        2.97541955059229       -0.34568661855772
H            6.57269522927997        3.03288051224826       -0.26202709130976
H            4.81421549057623        2.71994065457920        1.23629392505572
H            2.37795401623770        2.82091767905207        1.35018074661867
H            0.27788552223545        2.02401117255084        0.84479723548171
H            0.04127115638235       -0.48942928999721       -0.88369036083830
H           -1.79666244956173        2.18861420006291        1.10894970706294
H           -4.20371122368120        2.24337969315751        1.30016895314121
H           -7.20566637292491        0.99929687297506       -2.01540269585987
H           -9.24720604298972        1.19130429916964       -3.35704557169579
H          -11.14590295627288       -0.34169634692289       -2.96374221001033
H          -10.98951521328956       -2.04981276969812       -1.18527028193677
H           -8.97125911750580       -2.22522191881227        0.18846203341939
H           -7.14646663298926       -3.24248375229304       -0.89779640258317
H           -6.34048674182694       -5.30988563893168        0.13370722479252
H           -4.96246411887830       -5.22961480707305        2.18336479566686
H           -4.41038923107398       -3.04491084202230        3.20043279326291
H           -5.24700079267395       -0.97080872163842        2.20463012071572
H           -8.17266934912622        0.58554094018226        1.72406163691345
H           -9.48503513971426        2.56047961344935        2.35295778504824
H           -8.79237522053636        4.80781162591573        1.59514157281393
H           -6.78715715537865        5.05454426414026        0.17320781568115
H           -5.48612466939507        3.08335903307551       -0.48226678071349
H           -4.48624575898180       -1.25293517683427       -1.18219355697233
H           -2.06278841420821       -1.30678373241796       -1.36426988233509
H            2.12580846759636       -0.65940518855731       -1.13367843475860
H            4.54964843686238       -0.74230512980879       -1.25470849427916
H            6.39638582722847       -1.22785119889527        0.09366179113896
