86
 energy: -124.614826537671 gnorm: 0.000038279651 xtb: 6.7.1 (edcfbbe)
C            8.70531232429452       -3.33376444517700       -1.18256311583853
C            8.92277172375825       -2.73632998632204        0.20780054496900
N            9.28141122710491       -1.34329043278054        0.14388672426797
C           10.55746541543488       -0.84548413115322        0.03342932131856
C           11.77397846338228       -1.51543696374793        0.01576136261883
C           12.92777698186494       -0.76282732126862       -0.09073965508201
C           12.88483652138868        0.62748179795837       -0.18179747614027
C           11.68033283768344        1.30194378229265       -0.16862954400224
C           10.50573357204172        0.56749006944175       -0.06154855859000
C            9.11728253934223        0.92288078707183       -0.02116467753936
C            8.42936943533578        2.12918732233279       -0.07172782537969
C            7.05298989784303        2.11475564892637       -0.00324401284165
C            6.33557659031159        0.91381020948814        0.10550697536608
C            4.86799456996066        0.93667718443844        0.16834374042131
C            4.19512298244607        1.89322114505599        0.92808493477712
C            2.81836291824395        1.90453390949360        0.99077925306830
C            2.04747040741257        0.96806608490548        0.29247169450968
C            0.60347333956233        1.03472170138256        0.39567397429844
C           -0.28020971948865        0.24259606654223       -0.23201834223548
C           -1.72423666834522        0.31365655477608       -0.13667243719283
C           -2.40361932670970        1.17690994710913        0.72928203688950
C           -3.78064169394186        1.20513061902234        0.76843639511739
C           -4.54222064619204        0.36223106709090       -0.04275537746781
C           -6.01045569776686        0.42195233061254       -0.00756969444591
C           -6.78558566201920       -0.68662303775695       -0.00741799011768
C           -8.24699866187908       -0.62723622780792       -0.18272060593286
C           -8.81675980393715        0.14429735190417       -1.19419889888108
C          -10.18751533163018        0.17226763587185       -1.36823680914922
C          -11.01205506183320       -0.56876791199172       -0.53697605930225
C          -10.45542822549466       -1.34834303892944        0.46386556389048
C           -9.08414673914873       -1.38406446661473        0.63553966606583
C           -6.23076652686424       -2.03961174105823        0.17039722184370
C           -6.66059940136856       -3.08720159458111       -0.64266445293004
C           -6.15585937314997       -4.36288564657542       -0.47155037875469
C           -5.22608018205703       -4.61658508641567        0.52365975886412
C           -4.80773399775942       -3.58644673628211        1.35076323462101
C           -5.30557434303538       -2.30889680031393        1.17774889683505
C           -6.58141922712879        1.78055518330019        0.02653363306923
C           -7.58625986713105        2.11355219437293        0.93291429071702
C           -8.09767984206780        3.39697210897824        0.97382885517976
C           -7.61508333229781        4.36843053223803        0.11164434979925
C           -6.60818599600719        4.05091876066434       -0.78534275510347
C           -6.08943255500942        2.76996810834585       -0.82304114627344
C           -3.87160125503132       -0.49558412951840       -0.91510299865338
C           -2.49524184444011       -0.51884110768788       -0.95706379313491
C            2.72793798530943        0.01415221416508       -0.47114841097884
C            4.10475551866345       -0.00145890285282       -0.52766404330396
C            7.01263615932000       -0.29971987752833        0.15196864918841
C            8.39755944726644       -0.29166272454170        0.09463953108964
H            9.61587222899240       -3.25883279208972       -1.77262932691776
H            8.42617784960997       -4.38076474113072       -1.09874628881540
H            7.91371295329030       -2.79954713629949       -1.70300351983008
H            9.72073818081940       -3.27439142876163        0.72614789097893
H            8.01001115852837       -2.82986012352357        0.80258256900741
H           11.82747239174074       -2.59188902524362        0.08013941784553
H           13.88579810881435       -1.26276459880268       -0.10628110116353
H           13.80962850936862        1.17999741797672       -0.26480219633448
H           11.64758508540371        2.37927972671914       -0.24071778874182
H            8.96612811628381        3.06202575530132       -0.16462007318163
H            6.50621044118695        3.04467738529180       -0.05987497319860
H            4.76240638691769        2.62015075222601        1.49166185152012
H            2.32081897750448        2.65202977506596        1.59381875021498
H            0.24157257216830        1.81988557109264        1.04684412123762
H            0.08102994161011       -0.53162092641219       -0.89636549197780
H           -1.84911416265941        1.83255251669978        1.38323203718220
H           -4.28430563607867        1.87889569439492        1.44801853266281
H           -8.17643956829829        0.71380008172599       -1.85204554802259
H          -10.61502545355454        0.77245280422440       -2.15874754465232
H          -12.08355488774837       -0.54319749679887       -0.67246397149467
H          -11.09291732484558       -1.93258598512081        1.11223294386969
H           -8.65208658011851       -1.99214691229326        1.41829423393557
H           -7.38459002984934       -2.89109266376967       -1.42144808581406
H           -6.49057503124647       -5.16333770939153       -1.11604949625636
H           -4.83329912485333       -5.61404294422683        0.65785442639254
H           -4.09243412372698       -3.78029333176795        2.13734205833089
H           -4.98632549940760       -1.51095917804375        1.83239596932802
H           -7.95738940881026        1.36178178012472        1.61423890969795
H           -8.87525308559894        3.64147664724941        1.68337262126332
H           -8.01843374829364        5.37021102856426        0.14247530370437
H           -6.22378097641238        4.80549967369636       -1.45686063853689
H           -5.30395217510141        2.52424028436167       -1.52428820125006
H           -4.44096817323205       -1.13676777757122       -1.57215852747780
H           -1.99759441053335       -1.18873947782662       -1.64488668377290
H            2.17420879551437       -0.72543253247107       -1.02916978654237
H            4.60268266326678       -0.73995232883124       -1.13990909770340
H            6.45963802621907       -1.22122176796672        0.25312109211781
