57
 energy: -93.042189658254 gnorm: 0.000111998343 xtb: 6.7.1 (edcfbbe)
C           -5.28328038738735       -5.18714434800821       -0.39139238436986
O           -5.54006266775247       -3.80727221007829       -0.27838206176297
C           -4.49695535105311       -2.94230624135626       -0.22144699859583
C           -3.14936559599213       -3.32011815436459       -0.28492920018337
C           -2.13804335182976       -2.37964793737580       -0.21154844239554
C           -2.48117229907247       -1.04456459771873       -0.06062476895582
C           -3.84465427427193       -0.64598463696943       -0.03704455943177
C           -4.84696987777372       -1.59307545471488       -0.10901685341389
C           -3.84391361208964        0.78844855998359        0.04754724862833
C           -4.86180905255220        1.72772091671934        0.11409696003482
C           -4.51399796163240        3.07094313200415        0.22587842845526
O           -5.40016417138352        4.09348615687254        0.29560406527253
C           -6.77755094044161        3.80645939391015        0.25077225265079
C           -3.15978780318523        3.45254537264656        0.29290985686098
C           -2.14277364890823        2.52911423334298        0.22507456397077
C           -2.48365651840462        1.18775112408497        0.07612276663456
N           -1.67585291460506        0.07338404381203        0.01032106888134
C           -0.28874608157341        0.07085775952163        0.01399607293173
C            0.42559868280971       -0.84690187029214        0.80970672704651
C            1.78904595733923       -0.85451825874961        0.81104632183888
C            2.54308527988005        0.04915160282300        0.01001584936392
C            3.96222162488950        0.03073586781319        0.00269946526530
C            4.75378477382123        1.21055632300897       -0.23435331251870
C            4.19598165505386        2.49022080139270       -0.35968985290260
N            3.81285193370927        3.57423229702420       -0.43550437488858
C            6.14386346620895        1.13650849615060       -0.22136437909971
C            6.99687921919156        2.34581036886018       -0.43775837619444
N            6.78113540587280       -0.00920856202104       -0.00385114775763
C            6.11325737590291       -1.13666634392858        0.21492580986927
C            6.93292882848728       -2.36974389333663        0.42642438965868
C            4.72166035698506       -1.17196352365659        0.23297551227527
C            4.12759510146963       -2.43541363896022        0.35316886302135
N            3.71191961650139       -3.50802148990851        0.42226277523667
C            1.80076877733672        0.96934677174562       -0.78307218515578
C            0.43709513355501        0.98215654758389       -0.77859834070429
H           -6.26053330716920       -5.66695391005950       -0.40366673773639
H           -4.75373322860529       -5.42222993966372       -1.31977467957401
H           -4.70789763833817       -5.55971775185568        0.46155098862508
H           -2.87918725954309       -4.35665457354004       -0.40176167465505
H           -1.10755950305866       -2.68876237228991       -0.28760461259285
H           -5.89037081754414       -1.32418217492292       -0.08756312305805
H           -5.88915876483278        1.40359373835195        0.08580758526123
H           -7.28111649703569        4.76937182157750        0.31682492216900
H           -7.08397107304947        3.17943027377521        1.09393178982993
H           -7.05473061858154        3.31663719732884       -0.68792636397443
H           -2.94392055648578        4.50213978696302        0.40746167694564
H           -1.11372871573198        2.84145404064091        0.30301163695003
H           -0.12045234230156       -1.50030904612288        1.47398754196815
H            2.30757549194338       -1.52150174000047        1.48079333050585
H            8.04447222643983        2.06089873272807       -0.39658941654985
H            6.79499346395553        3.09481816787696        0.32712878386534
H            6.78128268732263        2.79729405338669       -1.40529154786018
H            6.70658182547028       -3.11203917271691       -0.33815623543436
H            6.70915311276220       -2.81575250615827        1.39464455292224
H            7.98791324809989       -2.11435784491510        0.38074510070293
H            2.32745095878374        1.63252326843011       -1.45011114612116
H           -0.10047269858544        1.64679419056848       -1.43847615479204
