57
 energy: -93.125098215797 gnorm: 0.000070386485 xtb: 6.7.1 (edcfbbe)
C           -6.51472162609304       -3.72341460729845        0.06192591499023
O           -5.14472651039603       -4.03198026840804        0.02592156451706
C           -4.24830606646529       -3.00003462535198        0.01235291844431
C           -2.89976760866717       -3.38897949054241       -0.01820499474663
C           -1.87685992647504       -2.46723212813275       -0.02119191318911
C           -2.21111098411635       -1.11965372855944        0.01937602654769
C           -3.56251836248578       -0.71707983589771        0.01116959111183
C           -4.58778751784234       -1.65768212186790        0.01385691725518
C           -3.56329497803778        0.71807695371994       -0.01425549377360
C           -4.58964001691648        1.65749367364034       -0.01444092866814
C           -4.25171746704331        3.00023677071768       -0.01348371346865
O           -5.14939501790693        4.03112645719339       -0.02435446266365
C           -6.51916043377351        3.72090898173727       -0.05458971292897
C           -2.90355232561540        3.39070899542621        0.01358194106944
C           -1.87956665542630        2.47013346140112        0.01418001304419
C           -2.21232916390402        1.12216348336521       -0.02529176960265
N           -1.39804792819294        0.00168284321172       -0.00373909063940
C           -0.00624614906236        0.00201910251653       -0.00274092733869
C            0.69923354315431       -0.82372297654825        0.87292935666585
C            2.07704488495642       -0.83195545414706        0.86392218285957
C            2.78540983573266        0.00137371896946       -0.00075480402089
C            4.24966613831593        0.00041151632122        0.00001105626621
C            4.98215731816313        1.19561642823756        0.04380440528484
C            4.33829661467414        2.44752471441810        0.13984760478046
N            3.86065064091741        3.48588563385069        0.23843148637526
C            6.38782040163735        1.14557638842425        0.04603855594316
C            7.20351747932864        2.39262095011169        0.10455056121122
N            7.04184998562817       -0.00195087597857        0.00171219931992
C            6.38595170777208       -1.14838016033235       -0.04344069102935
C            7.19956998506213       -2.39682826976346       -0.10095487958337
C            4.98021595862834       -1.19602761865815       -0.04293281063372
C            4.33440048356818       -2.44687528477848       -0.13974293621113
N            3.85526585231711       -3.48450101223528       -0.23886568918538
C            2.07864215487029        0.83527679620644       -0.86616766572564
C            0.70078697151870        0.82771485600318       -0.87715400952706
H           -6.82583440577453       -3.16427216557995       -0.82711223923099
H           -7.03319837015983       -4.68078460509630        0.08267603018092
H           -6.77555298928264       -3.15218978831931        0.95943002376605
H           -2.68601197961851       -4.44542210234316       -0.04389551066549
H           -0.84990533889819       -2.79416683984444       -0.06948017757306
H           -5.61328990341872       -1.32558776946727        0.01043470136120
H           -5.61473867086719        1.32418773025198       -0.00870259939851
H           -6.78322042091131        3.14977077219868       -0.95120359374871
H           -7.03889193252488        4.67765237227070       -0.07265069966637
H           -6.82570821148009        3.16098616425845        0.83554532675193
H           -2.69094369420968        4.44740008478848        0.03862804345052
H           -0.85289801969425        2.79830618616856        0.05994110562411
H            0.16019654077005       -1.44144511264595        1.57408431255270
H            2.61029847629859       -1.46269406614078        1.55990299207836
H            8.25860403321645        2.13554858051661        0.09474757667281
H            6.97267229261310        2.95292889352157        1.00994447739322
H            6.97629688966289        3.03565914119737       -0.74490520989489
H            8.25508934408223       -2.14163785635490       -0.08899429350521
H            6.96950540935153       -2.95624971288426       -1.00710022585192
H            6.96953152761282       -3.03991483218663        0.74770279760341
H            2.61318985456981        1.46589451864368       -1.56126828200003
H            0.16307735085677        1.44577714008464       -1.57902735863705
