92
 energy: -138.214369894827 gnorm: 0.000069760511 xtb: 6.7.1 (edcfbbe)
C            6.83867732101235       -1.68771173965715        0.40711430179274
C            5.59798952119232       -0.91351372074118       -0.07508715331229
C            6.01309877690681        0.43488840011744       -0.69334554660133
C            4.88797821004623       -1.72401069939396       -1.14043060743714
C            5.57976735127666       -2.07882540458420       -2.29127203322924
C            4.97801065593011       -2.76488888002414       -3.32865054423874
C            3.63625154845613       -3.08911754209304       -3.23306923251614
C            2.92737507196506       -2.75203216570216       -2.10056992132097
C            3.54068988934921       -2.09046752896271       -1.03101213315688
N            2.81547173854390       -1.80900481094070        0.12045722008872
C            1.40137814373734       -1.86307654737915        0.08177122609629
C            0.69949876889148       -3.06187692791399        0.02494380062422
C           -0.68135732114058       -3.06519396789975       -0.07136122386592
C           -1.39029581863854       -1.86980885128520       -0.10995733651435
N           -2.80470254727914       -1.82337416597364       -0.14681619106193
C           -3.38191544803983       -1.11597511128357       -1.18967540765729
C           -2.63566486247805       -0.89016401934867       -2.35329731928033
C           -3.15341543805488       -0.16041825709592       -3.39955630646519
C           -4.43922171785384        0.34626558611230       -3.31449623224640
C           -5.19906376285601        0.07978551089000       -2.19112619872466
C           -4.70099343209028       -0.65496114766542       -1.12326505479733
C           -5.59112554017234       -0.94405717525587        0.06627943079563
C           -6.82967429433548       -1.71495321885875       -0.42657175334138
C           -6.01026516473332        0.39254619130383        0.70704610522835
C           -4.87633271282079       -1.76898144588320        1.11725951424208
C           -5.56531422118619       -2.14598749814430        2.26272279486697
C           -4.95935606306762       -2.84628677855699        3.28806713471049
C           -3.61617028149577       -3.16249308427503        3.18596241343528
C           -2.90997827452327       -2.80334803545664        2.05857869722334
C           -3.52742969904893       -2.12719249945772        1.00058754346209
C           -0.71220719755031       -0.63698825220506       -0.06940981180791
N           -1.35685647968955        0.52308229434813       -0.15639429518909
C           -0.70608631762131        1.68319959229592       -0.08323549212394
C           -1.40971868580499        2.92055070687016       -0.20810516323330
C           -2.79099021677559        2.89925851070595       -0.45815325504644
C           -3.49486157055509        4.06720298580064       -0.59534266573131
C           -2.82970832894682        5.28875042340030       -0.48577463433990
C           -1.47672391797520        5.32668340643918       -0.24619350126879
C           -0.72330128561635        4.15259805101293       -0.09970115803470
C            0.70044294714040        4.15496323012497        0.15142388513843
C            1.44746776837537        5.33126928819013        0.31218231794688
C            2.80066590078385        5.29779198645509        0.55121701479834
C            3.47247050594174        4.07864606690027        0.64598691717209
C            2.77496024340455        2.90863983213163        0.49459951252633
C            1.39359632123682        2.92546097292827        0.24472740806223
C            0.69683371182552        1.68590714628578        0.10414974936443
N            1.35416456672185        0.52864072855821        0.16207419800262
C            0.71615819972894       -0.63377563368278        0.05885430158286
C            3.38793487444504       -1.11522800177185        1.17502023590397
C            2.63917275686973       -0.91107732605230        2.34101561092034
C            3.15233397055359       -0.19569313561729        3.39939114816006
C            4.43603247833458        0.31783209027655        3.32417307308368
C            5.19845313337287        0.07259458919250        2.19771988621949
C            4.70497706895752       -0.64722133717392        1.11763211908826
H            6.53557419280731       -2.64171765552702        0.83451623372652
H            7.52172081216417       -1.88134693343314       -0.41496894024538
H            7.37483085562993       -1.12665194138875        1.16726267942355
H            6.67303485189184        0.28468636401966       -1.54344024708108
H            5.13040826127711        0.97244316673995       -1.03509582162590
H            6.53068258524414        1.05207806402180        0.03599210530085
H            6.61925510344627       -1.80531116389731       -2.39020753773260
H            5.54635075994494       -3.02853480219677       -4.20746589972198
H            3.13787650034262       -3.60283678462836       -4.04154755688882
H            1.87862719895718       -2.99552913698830       -2.04714574583485
H            1.24449526725166       -3.99266117572333        0.06405258877982
H           -1.22085176373176       -3.99847735061784       -0.12464048926977
H           -1.63896774992801       -1.29682683519129       -2.42958505549715
H           -2.55435724413815        0.01236919180649       -4.28091543932449
H           -4.85221375223620        0.93200099150421       -4.12149905776049
H           -6.20781179626851        0.46211963731177       -2.14825001131490
H           -6.52373020228741       -2.66090029835699       -0.86957353691488
H           -7.36893412277339       -1.14377983666313       -1.17692216051726
H           -7.51089858452328       -1.92416377366660        0.39319347656846
H           -6.66791319231544        0.22599896841791        1.55587297776460
H           -5.12900511797179        0.92798441667428        1.05574555167917
H           -6.53168064891740        1.01939500118084       -0.01124471776929
H           -6.60594661905469       -1.87895414275541        2.36714682557890
H           -5.52560334644700       -3.12711991817349        4.16289830518468
H           -3.11457970146024       -3.68712281975785        3.98539430468990
H           -1.86012774345025       -3.04086895909039        2.00033373438253
H           -3.27424271223275        1.93851650194630       -0.55136041181065
H           -4.55677082243576        4.04494475840540       -0.79064580585464
H           -3.38126961461700        6.21138964706502       -0.59408748685085
H           -0.99355212394626        6.28839440418271       -0.17506245131157
H            0.95905621883622        6.29112821705390        0.25279590585802
H            3.34721973858155        6.22203765661836        0.67064626053622
H            4.53451027352411        4.05981900485037        0.84094229032935
H            3.26341104614279        1.94945141377009        0.57609854013241
H            1.64419857204033       -1.32328643489200        2.40957861964867
H            2.55136178954173       -0.03952806066415        4.28255020493664
H            4.84544033462629        0.89240417430903        4.14097132008701
H            6.20559489439612        0.45989819592997        2.16233032819607
