40
 energy: -70.237472883956 gnorm: 0.000066636571 xtb: 6.7.1 (edcfbbe)
C            5.51007473168910        1.39264767094644       -1.88005882189939
C            4.49811303212138        0.71187179016658       -1.03152275157500
N            3.25218701613047        0.90033537183809       -1.20109888201445
C            2.36475161353210        0.24053413660012       -0.37877375948504
C            0.99766615371277        0.43412165019095       -0.55554124810742
C            0.09351249498371       -0.22949521281412        0.26278944316313
N           -1.28585353438493       -0.03877719198552        0.10020751751904
C           -2.12472267600764       -1.13223331107556       -0.15894153082196
C           -1.62841151361158       -2.40803585143436       -0.40095893289446
C           -2.48386749493507       -3.46819842439104       -0.65860871466581
C           -3.85006057461382       -3.27016599043108       -0.69651181391423
C           -4.35947552195577       -1.99566981744791       -0.50176307905054
C           -3.50857972070697       -0.93458303797954       -0.24645047788521
O           -4.08669322821233        0.30283385423802       -0.10864045534548
C           -3.24967478361559        1.37423102343190        0.08745463045544
C           -3.84945204958305        2.61728857401559        0.18874085381736
C           -3.08385928180917        3.74658088761529        0.43330953184296
C           -1.71881633038893        3.61719433377218        0.59606516310633
C           -1.11336688466860        2.37438660134716        0.48969407172789
C           -1.86008986560451        1.23703202191984        0.20552270955709
C            0.56010853213406       -1.09868793203810        1.26441020632960
C            1.90659694350964       -1.29689864446725        1.44406441328598
C            2.82637057974584       -0.63217470478003        0.62598652713144
C            4.25718419967415       -0.81607422378043        0.78254285344998
O            4.80825787866667       -1.52612884515737        1.59289126864393
O            5.04563940980686       -0.10132949003757       -0.09033334855196
H            5.00800214660547        2.02582731796882       -2.60338779162342
H            6.17167311395215        1.98765721024346       -1.25307918680487
H            6.11969489917386        0.64867599295120       -2.38967620999284
H            0.66342883567153        1.09009756686194       -1.34334529027836
H           -0.56325882811453       -2.57669481212454       -0.39593148873787
H           -2.06870336875431       -4.44844480395919       -0.83497641391536
H           -4.52085725884770       -4.09205209117660       -0.89054975343640
H           -5.41881465302508       -1.79851217207601       -0.55001799380193
H           -4.92125125249357        2.67457183349682        0.08191591386889
H           -3.55943394107034        4.71165975228448        0.50817858268317
H           -1.11000334200347        4.48144469762253        0.81210499787199
H           -0.04907398275650        2.29225839555081        0.64043759348763
H           -0.15406887297802       -1.59827219456155        1.90108128844997
H            2.28219392341839       -1.95177280617838        2.21536509005141
