40
 energy: -70.155766386902 gnorm: 0.000067552761 xtb: 6.7.1 (edcfbbe)
C            5.47411522574080       -1.18712308932079       -2.08452290346678
C            4.48010937823388       -0.60121043104660       -1.13732149613589
N            3.23338261693814       -0.76238217665962       -1.32937235741873
C            2.34762288368768       -0.20523571760286       -0.42215125501869
C            0.99321587030031       -0.36708811390427       -0.61179972077931
C            0.09087543129941        0.20063435862744        0.29964088190846
N           -1.30322912718691        0.03949499514988        0.10718798731209
C           -1.87529890761613       -1.20671871789085        0.20672889178367
C           -1.13511486906605       -2.35925979878402        0.50601173493429
C           -1.75398690347633       -3.58418657892778        0.58809608871917
C           -3.13704104934315       -3.70371189201341        0.38796533429212
C           -3.89515967512411       -2.58433240161194        0.12314036043221
C           -3.28585175064952       -1.33578925511791        0.03516228641366
O           -4.07124078858479       -0.26217208889772       -0.19515605406338
C           -3.50132824842048        0.95801238310157       -0.29119990759636
C           -4.32645568482349        2.05027671480309       -0.53791803040396
C           -3.78143818677941        3.30837055629689       -0.67790479154155
C           -2.39182902185580        3.48607963081674       -0.58969839064604
C           -1.56183877945117        2.42051543358264       -0.33947681817447
C           -2.08994156011483        1.13242595889158       -0.16205686670483
C            0.56366720796188        0.92990912282947        1.40954485981878
C            1.90397623256895        1.08755893927083        1.61122901037336
C            2.84189661683721        0.52859116570694        0.69979056573258
C            4.23477608900827        0.68383301170320        0.87286249288655
O            4.83029046757726        1.27809117756701        1.77146518409616
O            5.05498027317385        0.07540329990613       -0.11835654474037
H            6.12207680902116       -1.87897596173151       -1.54934349171893
H            4.95035352323859       -1.70333198881801       -2.88180102414917
H            6.09829329323591       -0.39468122059802       -2.49324311293848
H            0.64149620731005       -0.91086350504415       -1.47407197523944
H           -0.07383767492552       -2.27063214946833        0.67209672940490
H           -1.16876841993292       -4.46087787784277        0.81476304336346
H           -3.60849861106368       -4.67075976740173        0.45396893499961
H           -4.96289140674926       -2.64121261449249       -0.01537071103385
H           -5.38772513810429        1.87946252767308       -0.62198879882398
H           -4.42060313445111        4.15472214518248       -0.86942437018990
H           -1.96961177385748        4.46901086077779       -0.72439092056069
H           -0.49416155388381        2.55857170906879       -0.28226259078249
H           -0.14877377973183        1.34414888892852        2.10771945525299
H            2.29018965769447        1.63267713304760        2.45860755436743
