80
 energy: -106.836195906989 gnorm: 0.000137499769 xtb: 6.7.1 (edcfbbe)
C           -2.28179234654829        3.95970291812085       -2.03501258993717
C           -2.09257900988425        2.62502975018277       -1.32752631018523
C           -2.14902812067725        2.65829560140161        0.17473054425042
C           -2.44015741118674        3.80706437241592        0.89377046122923
C           -2.48103592390161        3.79283444566353        2.27860945209427
C           -2.22407566238102        2.62129116462070        2.96614062073049
C           -1.93086783347327        1.46528083783738        2.26448236881976
C           -1.90073906374505        1.46796547525048        0.87598211162650
P           -1.46343355378797       -0.00442086811514       -0.13299329073716
C           -3.14351809553704       -0.67987877696392       -0.46923804103836
C           -4.30224600614558       -0.06267274582838       -0.00464672792163
C           -5.54937373888744       -0.57062529423109       -0.31755485006573
C           -5.65406693543700       -1.69798967180532       -1.11459134416432
C           -4.50779304643473       -2.31053684229608       -1.58689776490243
C           -3.24569886239786       -1.81998676872641       -1.27492474319606
C           -2.03259841875131       -2.53751558518319       -1.79320802727640
C           -1.82741183326891       -3.87768271643682       -1.08664417395161
C           -0.92653011798217       -1.20518360396347        1.13433630931706
C           -1.73005307913902       -1.80277188529515        2.09363883088453
C           -1.17772948230718       -2.72209450841314        2.97164767253231
C            0.16395365684957       -3.05772605005176        2.87550498079204
C            0.96582053182648       -2.48524719005969        1.90109193176541
C            0.42956289378735       -1.54080665096640        1.03677941624860
P            1.22598945951920       -0.83232262127246       -0.44570130970543
C            2.87888279589244       -1.67266791000320       -0.40911767251604
C            3.00652343870506       -2.56892843219235       -1.47243482396319
C            4.14016109634212       -3.33725667032615       -1.64641919311013
C            5.18199887385521       -3.21474840084188       -0.74260581292932
C            5.06791585144080       -2.33052608392992        0.31350748561293
C            3.93162694425567       -1.54891730028445        0.50144643364212
C            3.90886055859980       -0.60836673886496        1.67234377893408
C            4.75578986178087        0.63463665049026        1.39586652941251
C            1.56781258099683        0.90048205492839        0.05178548696514
C            1.18718098196684        1.41467099256125        1.28697993755914
C            1.35351990932382        2.75557989897494        1.57811740104394
C            1.89390000779138        3.60403402701720        0.62835042190303
C            2.26835892512803        3.10177697854097       -0.60547903042504
C            2.10879049072423        1.75748575360057       -0.91317931798505
C            2.48133825238883        1.25068983830093       -2.27700215565489
C            1.27416115149067        1.27852230016467       -3.21451180841024
H           -3.26498868521135        4.37693398647579       -1.82758197727785
H           -1.52054900694337        4.67231216864274       -1.72422860202408
H           -2.19695321372648        3.81634054251735       -3.11019075806881
H           -2.85368052863213        1.91958127818239       -1.68290401777478
H           -1.11911623904454        2.20629765818532       -1.60782713857045
H           -2.63818868820440        4.73270729762497        0.37638064487108
H           -2.71012674692008        4.70035148449519        2.81912203098929
H           -2.24962335253155        2.60337413518173        4.04681571780482
H           -1.72351867108175        0.55548061475528        2.81026494508420
H           -4.22877055376692        0.82351368461282        0.61007514011111
H           -6.43785696835331       -0.08245277424075        0.05719600497288
H           -6.62582113154933       -2.09569316690936       -1.36982931896439
H           -4.59002562141227       -3.18498485109467       -2.21755152928607
H           -2.14479985644376       -2.71244897242269       -2.86655282853677
H           -1.14377499400003       -1.91525435042044       -1.64107112267903
H           -0.94174408878907       -4.37670463928493       -1.47350480145078
H           -2.68615549101252       -4.52826546574932       -1.23744685786322
H           -1.69602118427771       -3.72609375725937       -0.01714501104419
H           -2.78527957337838       -1.56593841500574        2.14100585968764
H           -1.79915860398544       -3.18886811395418        3.72300224913119
H            0.58565742146352       -3.78528668505466        3.55467915398976
H            2.00134153556639       -2.78181932528416        1.81163959862104
H            2.18576176560716       -2.65307419257668       -2.17482549677645
H            4.21170466386379       -4.02530247030904       -2.47644993941238
H            6.07824680308272       -3.80748522161516       -0.85767759875836
H            5.87895959088225       -2.24357009062590        1.02420848236300
H            2.88595846029820       -0.30753806284938        1.89321382411514
H            4.30953862191322       -1.12082929334943        2.55202684392896
H            5.78613505471801        0.35677928249312        1.18374325165533
H            4.74417057877805        1.29795079617198        2.25814018393790
H            4.36206349624059        1.17759939705009        0.53957516801784
H            0.76961801513806        0.75888694303754        2.03948525471739
H            1.05519118215272        3.13547973980031        2.54466020268150
H            2.02226527679824        4.65416521981625        0.84807193533925
H            2.69008867398232        3.76495610094990       -1.34863669637944
H            2.85159152738896        0.22409527663445       -2.19867050464289
H            3.28044553529802        1.86787535062111       -2.69501663654401
H            0.90969407732519        2.29665996225295       -3.33341373918903
H            1.54490009010656        0.88762062923274       -4.19264072751065
H            0.47139510785224        0.66617555527737       -2.80556537661201
