80
 energy: -106.747168446471 gnorm: 0.000051197483 xtb: 6.7.1 (edcfbbe)
C           -0.79540596986766        0.88361114763829       -3.26869802548669
C           -2.12172123081755        1.36412970120980       -2.68045203567370
C           -1.87865004167437        2.39364779555113       -1.61907734080275
C           -2.02008818476911        3.74548503565464       -1.89392770262254
C           -1.71982848431088        4.70737984662364       -0.94381374910269
C           -1.26385467981341        4.32103425258854        0.30927177883910
C           -1.13207478558991        2.97999298046785        0.60901901606822
C           -1.43827685949197        2.00809541693574       -0.34300714225040
P           -1.38761180239267        0.24059026556380        0.11107735732696
C           -3.14324339441974       -0.25247696509590        0.16206324915177
C           -4.14345050188659        0.70752907391573        0.34297601926652
C           -5.46548791822031        0.31919906622992        0.42781763965685
C           -5.80647953063048       -1.02037433936376        0.31759752110731
C           -4.81302182284340       -1.97282760419865        0.13010917652537
C           -3.48031915555484       -1.60822544208412        0.04848597562356
C           -2.40809696727073       -2.63296567029473       -0.17346772711255
C           -1.99485215612058       -2.70128271627240       -1.64276754166834
C           -0.88161371425725        0.19919648993191        1.82771883702544
C           -1.63697788016713        0.33212127991062        2.98185260588081
C           -1.00721629719360        0.26213258251000        4.20901087867294
C            0.38751490392156        0.03882292295771        4.28573992139998
C            1.13973330025354       -0.14679088516691        3.15443171166640
C            0.50577934726495       -0.14026167448954        1.90311360116034
P            1.20197934048505       -0.27613531792471        0.26604959717759
C            1.39451891199413       -2.07737220586784       -0.05073290594889
C            1.00169063815244       -2.98971763457970        0.92764525635550
C            1.04190155253473       -4.34738118597600        0.68005815672783
C            1.43547281850785       -4.80804579577387       -0.56792600025480
C            1.79835852962923       -3.90514558417538       -1.55206370665094
C            1.78449639429550       -2.53725629783934       -1.31391660993701
C            2.21696674146159       -1.58218708547533       -2.38582866585123
C            3.73469029510512       -1.58240995908636       -2.56666739474057
C            2.92572017321564        0.29466021172735        0.41303557986898
C            3.86047230336507       -0.58100951105508        0.98358961322410
C            5.12914237469839       -0.13579217236733        1.29134706927066
C            5.48465249548019        1.18098932978392        1.03770846039511
C            4.55928788019012        2.04797605639687        0.47047407808665
C            3.28014806493282        1.62422176459219        0.15113970523012
C            2.31518140340029        2.56023033384087       -0.51203299283494
C            2.62496763981112        2.72035897716382       -2.00003997145759
H           -0.16938235791148        0.47096589104171       -2.47730276938793
H           -0.96695073034933        0.11310540077700       -4.01690358438356
H           -0.26276546623303        1.71039258162881       -3.73316463075630
H           -2.74553957516515        1.78389073319771       -3.47230221560320
H           -2.65050851976011        0.50948095152991       -2.24471212249597
H           -2.36623543849400        4.05015785430371       -2.87206877887400
H           -1.83737331210875        5.75520166801765       -1.17839524195611
H           -1.01908987248158        5.06495280290696        1.05374719850708
H           -0.79009354921769        2.67401244330598        1.58895940064851
H           -3.87717144662242        1.75171994502305        0.42884652687073
H           -6.23298102726681        1.06460932931117        0.58162882447982
H           -6.84131659405316       -1.32388761334103        0.37654412302608
H           -5.08147697284175       -3.01708907681526        0.04902333258085
H           -1.52958934577018       -2.36492018695199        0.42549129649915
H           -2.75749091279671       -3.61414139124559        0.15444578321265
H           -2.85149122058623       -2.93703192688086       -2.27094872388027
H           -1.23188514577358       -3.46320867611917       -1.78215843207758
H           -1.58320988101350       -1.74271482827689       -1.95543447120859
H           -2.69995848509086        0.52730062817558        2.91695169669378
H           -1.57209697603001        0.40185545196021        5.11878932647772
H            0.85747227412821       -0.00082494093805        5.25871664223352
H            2.20324137203080       -0.33816517470558        3.21973916826485
H            0.68594687787288       -2.62248523761292        1.89628831429042
H            0.75945008268924       -5.04528234961528        1.45538497547341
H            1.45228819987928       -5.86867442577369       -0.77331282685114
H            2.09446166239989       -4.26618068615759       -2.52735028730717
H            1.74278862817438       -1.85269684833183       -3.33265785354463
H            1.88840603057388       -0.57342363166704       -2.10909624499201
H            4.08804459260059       -2.57652113128588       -2.83186536288626
H            4.22639962537277       -1.27677924008344       -1.64554374411146
H            4.02048285212051       -0.89135786900003       -3.35667956047170
H            3.58164525239677       -1.60875125748699        1.17389091942014
H            5.84444864202778       -0.81667969344364        1.73185670711598
H            6.47745855197220        1.53175527537811        1.27832615988062
H            4.84038404067831        3.07275501441089        0.27048304936367
H            2.35548591581845        3.53916920383949       -0.02793559758619
H            1.29840920661001        2.16351819782242       -0.39450733718439
H            3.63209399677268        3.10787269756650       -2.13888240720472
H            2.55417213889498        1.76103890555472       -2.50675811749252
H            1.92043033679294        3.41054331115238       -2.45799864324354
