80
 energy: -106.747757989447 gnorm: 0.000044526589 xtb: 6.7.1 (edcfbbe)
C           -3.46358994459973        1.09432234897275       -2.94237819868454
C           -1.98988819983973        1.26340724972013       -2.57448573871498
C           -1.80182875088326        2.27515940754349       -1.48295188357079
C           -1.99545727661011        3.62667406570929       -1.73700792274309
C           -1.83526425839339        4.57207569810082       -0.73874505251755
C           -1.47292479040471        4.17469957362885        0.53916456571811
C           -1.27537970880185        2.83442136496612        0.80984180742082
C           -1.43627254190977        1.88149646316365       -0.19311867689037
P           -1.24633160722572        0.09851477420602        0.19512333697415
C           -2.97362187102689       -0.46712847166049        0.29574049503961
C           -3.94745796960860        0.41478846789424        0.78030815618245
C           -5.25596134104091       -0.00368323928642        0.91065814123704
C           -5.61412726572325       -1.29115302844977        0.54033515164320
C           -4.64884169080656       -2.16324508315695        0.05370857268294
C           -3.32571178417654       -1.77125373830534       -0.06936705773219
C           -2.28484081818177       -2.74846755978115       -0.52629252620512
C           -1.83152626073753       -3.62592607197313        0.63980885935772
C           -0.60676052852416        0.01435941060611        1.85716292520049
C           -1.25919595108811       -0.05755210617336        3.08257749815422
C           -0.51319201563233       -0.15191488419034        4.23642875480093
C            0.90415241959259       -0.20551871833264        4.17918958399911
C            1.56353448596877       -0.19579543350975        2.97666606734800
C            0.81919153170494       -0.16455907010540        1.79185689745310
P            1.34633943410232       -0.09311160089343        0.09404198520303
C            1.52198800524818       -1.83841855176696       -0.45342700822630
C            1.63577786540993       -2.84894633719294        0.49736226295137
C            1.71443880000460       -4.17139869068347        0.10647225258676
C            1.64008319406984       -4.49711487645322       -1.24015909354454
C            1.49729169158323       -3.49700103592926       -2.18544612340570
C            1.44164125458947       -2.16058142619064       -1.81142102480746
C            1.34367745375555       -1.08201563974559       -2.84746962360820
C            2.71972803180758       -0.73226849694183       -3.41450660445198
C            3.06446439415137        0.51373034277402        0.08111191331560
C            4.12506435204862       -0.39604058955236        0.16797483183636
C            5.42111430268084        0.06025565664901        0.29345608529167
C            5.68049053695455        1.42272315050383        0.32692870009213
C            4.62970259625526        2.32686117347213        0.23397096450942
C            3.32191224527847        1.89311442254241        0.10976833540183
C            2.19563228031596        2.86815871275999       -0.04570802290452
C            1.82733356011675        3.04831025654455       -1.51748351981336
H           -3.57287264047982        0.34624777274285       -3.72429312059848
H           -4.03616483251077        0.77347950779362       -2.07455225518032
H           -3.87990714428700        2.03337831859596       -3.29996845742152
H           -1.59225150663270        0.29945834822625       -2.23223964652628
H           -1.43025685833474        1.57142688128633       -3.46137857881908
H           -2.26708407240485        3.94204631800811       -2.73465893043704
H           -1.99002015429748        5.61908107697002       -0.95609006970870
H           -1.34402762448049        4.90741180329958        1.32292602203113
H           -0.99523678632828        2.51331256361879        1.80554826913491
H           -3.66883723081853        1.42406553942298        1.05073429691971
H           -6.00141470982007        0.67918100122150        1.29372576155470
H           -6.64059827839603       -1.61546920120919        0.62770138856430
H           -4.93051640732170       -3.16691119384246       -0.23284444722918
H           -2.68243344929706       -3.37898544285076       -1.32462411622513
H           -1.41646150291346       -2.20213049215831       -0.91406018633514
H           -2.67498048161034       -4.16936227998823        1.06065975961336
H           -1.39489833369796       -3.00736293547329        1.42277193925864
H           -1.08227384687144       -4.33984055067752        0.30706027008486
H           -2.33956052830457        0.00535541511217        3.12644267013093
H           -1.00122311646158       -0.16240885341846        5.20017550006704
H            1.46146905973588       -0.27369729887314        5.10287245342752
H            2.64414528297165       -0.25917926931829        2.93388039156806
H            1.67260648608162       -2.58552281958712        1.54673749493319
H            1.82640684658607       -4.94784682108323        0.85006302118376
H            1.68730238297340       -5.53129223404194       -1.54977592322754
H            1.42997309790137       -3.75429813056277       -3.23345555135355
H            0.68864165986499       -1.40420910543737       -3.66040994599963
H            0.90996198509108       -0.18754851297793       -2.38278012421140
H            2.63208286179577        0.05135163186018       -4.16386285772410
H            3.17410021156495       -1.60632453390982       -3.87651308442686
H            3.37721996489430       -0.38195492447350       -2.62099657588780
H            3.92534192451822       -1.45787892438882        0.13811929141691
H            6.23354806093466       -0.64925847461575        0.36610259962435
H            6.69512268817054        1.78053675865821        0.42114717172150
H            4.83451685243003        3.38846835636556        0.25449802778854
H            2.47059280520143        3.83318626984985        0.38490516234060
H            1.31883050648456        2.48626302096433        0.49151589600013
H            2.68306241000791        3.41075806181484       -2.08334357653138
H            1.51198080756145        2.09471405454678       -1.93743298957392
H            1.00898834699033        3.75699415169810       -1.61748642309458
