80
 energy: -106.845642717482 gnorm: 0.000030588432 xtb: 6.7.1 (edcfbbe)
C           -0.91337022729072        0.54853829084401       -3.48500060192823
C           -2.17173202023364        1.13470511958382       -2.84685862671106
C           -1.80821614808328        2.17203554289306       -1.82454032138992
C           -1.79121093380623        3.51573266364478       -2.16980184970215
C           -1.42769016786408        4.48600459246965       -1.25172652039115
C           -1.07295013473194        4.11487994391663        0.03295069069528
C           -1.08504310746340        2.77855223855962        0.39319445774460
C           -1.45482599289628        1.79912561393498       -0.52233635496430
P           -1.45101938676898        0.00728275756654       -0.12113974362999
C           -3.25419048886344       -0.24350131942043        0.20164247066278
C           -4.13636122679340        0.81774422456613        0.37749151328968
C           -5.47968845731947        0.58820163388308        0.61533492314202
C           -5.95689870079873       -0.70979944840614        0.67601589224545
C           -5.08542719200137       -1.77019807356740        0.49807328589114
C           -3.73487749253179       -1.55534504282062        0.25968922592208
C           -2.81655460716945       -2.72063147231495        0.02712517793257
C           -2.69143394889079       -3.01599601903412       -1.46706121346012
C           -0.86355677788605        0.06659604434796        1.60997600473034
C           -1.62365160073111        0.06714235206839        2.76740609085024
C           -0.98607942576480        0.11346952992995        3.99940099047269
C            0.39609699483889        0.16065520201843        4.07316135391087
C            1.16374951233563        0.13356903168344        2.91717506222719
C            0.53416481863330        0.05918040606962        1.68604519511012
P            1.30654128555999        0.01977178049999        0.02734470002387
C            1.36223477492948       -1.79269592358290       -0.26787672317672
C            0.88559650669100       -2.71000216781089        0.66519020093396
C            0.88471565704183       -4.06555671404227        0.39236412421830
C            1.34962102689881       -4.52241257792699       -0.82889617867059
C            1.82013585743706       -3.61769004644810       -1.76257443346221
C            1.83984881243269       -2.25326931649165       -1.50018277683413
C            2.39724813994092       -1.31670592998370       -2.53277997902142
C            3.91827011455701       -1.42668273587132       -2.64061218093876
C            3.06089125212418        0.30613931239631        0.53277915560367
C            3.90205643659602       -0.73884892342337        0.90349000908656
C            5.20915199417668       -0.49438892902496        1.28486524219559
C            5.69174373207717        0.80317770543770        1.29645882601263
C            4.86053580591999        1.84710041640060        0.93038439040006
C            3.54539674119662        1.61720122595071        0.54819660974347
C            2.67639419110628        2.76706801743204        0.12653292511914
C            2.79399859435443        3.00847584130093       -1.37777406820237
H           -0.28552027209872        0.10087443024681       -2.71568523546939
H           -1.17544131202977       -0.21770125952184       -4.21115461627984
H           -0.34402909486467        1.32769693016020       -3.98716916933056
H           -2.80304249436191        1.57958752224052       -3.61940339500095
H           -2.74039833901905        0.33199444262132       -2.36582553543270
H           -2.06846345670899        3.80576621945722       -3.17408563170981
H           -1.42214533013549        5.52807175682987       -1.53787849357278
H           -0.78798281910028        4.86321767016660        0.75901137148304
H           -0.81708941906245        2.50130743803959        1.40381075268524
H           -3.76920615783652        1.83378928317960        0.33312439231238
H           -6.15147949046007        1.42331145758403        0.75529108649053
H           -7.00498569225995       -0.89575979122450        0.86262367639723
H           -5.45811554984316       -2.78443761930866        0.54621332090534
H           -1.82328763480334       -2.49487391062168        0.42744938913191
H           -3.19952675156301       -3.60366583133809        0.54361836446746
H           -3.67040029479912       -3.20908997583890       -1.90148176527974
H           -2.05583165079220       -3.88303363357224       -1.62985494419039
H           -2.24719805418157       -2.16258191853104       -1.97641621583163
H           -2.70358177339198        0.04332025384240        2.71409381406540
H           -1.57484121421768        0.12233835487090        4.90589746253632
H            0.88323178660680        0.21026007913172        5.03687242517619
H            2.24295628473240        0.15898334539008        2.98044510108896
H            0.52101684782912       -2.36474427359033        1.62317555761166
H            0.51567230479468       -4.76155720281096        1.13254189499429
H            1.34364184940906       -5.57975415336568       -1.05231584438868
H            2.17775412853846       -3.97325495761247       -2.71895935673307
H            1.95216973845837       -1.54150735766565       -3.50538707331818
H            2.13342024052193       -0.28849126469558       -2.26508034909319
H            4.21245168423234       -2.43933523136846       -2.90771263037206
H            4.38537051041049       -1.17146456582266       -1.69170150393641
H            4.29049644882079       -0.74515655476570       -3.40247735439987
H            3.52949395646772       -1.75414901628816        0.89938653051073
H            5.84829502224864       -1.31704708841472        1.57345413090360
H            6.71199040822314        1.00100568946314        1.59291253327727
H            5.23601133244311        2.86133451504690        0.94388275331172
H            2.97128068352367        3.67095766423595        0.66465478668387
H            1.63182338098435        2.55064536238057        0.37098591359918
H            3.82746263438165        3.20874878421818       -1.65325094373563
H            2.45657513131978        2.12840888427250       -1.92165360398205
H            2.17921784366258        3.85465527610325       -1.67501089442830
