  72
  -113.915275580000       0.554513996753850      !
 C         -2.2258066656        0.0227026088       -3.1982050290
 C         -3.1295970939        0.0126929642       -2.2115128121
 C         -2.7754176257        0.0063022156       -0.7437827252
 C         -1.3061932409        0.0063815101       -0.4894464010
 C         -0.4164757481        0.0129148205       -1.4919669600
 C         -0.8272974477        0.0245898209       -2.9024988049
 C          0.2921147157        0.0353100011       -3.6710555532
 C          1.4516485171        0.0290913587       -2.7979575479
 C          1.0191810008        0.0146029667       -1.4836613606
 C          1.9092820303       -0.0002151820       -0.2824892884
 C          3.3436991506        0.0078778075       -0.7158051449
 C          4.4832109767        0.0028600003        0.0416001266
 C          4.6985331445       -0.0148605677        1.4443276165
 C          5.9703171801       -0.0122506038        1.9146081326
 C          7.0907510180        0.0077366424        1.0312584215
 C          6.9382516037        0.0234522205       -0.3178739302
 C          5.6318182141        0.0213173954       -0.8674233514
 C          5.1762026589        0.0360451154       -2.1647323773
 C          3.7490239948        0.0280446941       -2.1219371456
 C          2.8280371626        0.0371100235       -3.1329045204
 C          1.6265461678       -1.3035252791        0.4455038970
 C          1.9181445123       -2.4765444513       -0.2467482312
 C          1.6691549113       -3.7205157632        0.2964825304
 C          1.1168323367       -3.8190390892        1.5647199370
 C          0.8258775708       -2.6704309322        2.2682710694
 C          1.0765229463       -1.4170119429        1.7129753253
 S          0.6335075740       -0.0425907530        2.7297743710
 C          1.0773752982        1.3598712564        1.7525564178
 C          0.8284277179        2.5970865439        2.3436129465
 C          1.1184371069        3.7647472513        1.6718096057
 C          1.6681989137        3.7016865609        0.4002041868
 C          1.9162776305        2.4734776501       -0.1781636397
 C          1.6256296104        1.2818888902        0.4816680612
 C         -3.3763294990       -1.2515184474       -0.1288824286
 C         -2.5740685326       -2.3585337451        0.1245513196
 C         -3.1106102511       -3.5282391131        0.6303624844
 C         -4.4690378962       -3.6151715546        0.8871121835
 C         -5.2805895343       -2.5251644787        0.6436693158
 C         -4.7360605790       -1.3501788383        0.1402072399
 S         -5.8428735831        0.0009718291       -0.1425151455
 C         -4.7399780140        1.3542487746        0.1443444056
 C         -5.2886636227        2.5268141447        0.6489771851
 C         -4.4804621515        3.6184273027        0.8963071582
 C         -3.1210628232        3.5349429162        0.6436750282
 C         -2.5803048324        2.3675887227        0.1367452242
 C         -3.3794023929        1.2596694529       -0.1223232912
 H         -2.5389082529        0.0287458705       -4.2326660261
 H         -4.1866170858        0.0105904513       -2.4291673143
 H         -1.0121100791        0.0013070077        0.5496080832
 H          0.3438899592        0.0460860302       -4.7444463531
 H          3.8520977052       -0.0299774685        2.1148636410
 H          6.1601669578       -0.0251474930        2.9780801512
 H          8.0797449631        0.0098378554        1.4667467013
 H          7.7929868176        0.0380357304       -0.9790325146
 H          5.7673969610        0.0512672964       -3.0606220623
 H          3.1310127143        0.0522440786       -4.1709001481
 H          2.3495287612       -2.3971421314       -1.2328408487
 H          1.9036204716       -4.6109904744       -0.2663648037
 H          0.9160416212       -4.7845341725        2.0031711895
 H          0.3964401615       -2.7219384230        3.2575259875
 H          0.4010821595        2.6217095183        3.3348035944
 H          0.9188837504        4.7178174048        2.1371482662
 H          1.9014551548        4.6078917840       -0.1375182140
 H          2.3463604796        2.4218459766       -1.1667355312
 H         -1.5173550047       -2.3101965749       -0.0905926230
 H         -2.4639224500       -4.3718987728        0.8169233917
 H         -4.8954623978       -4.5261560529        1.2777941307
 H         -6.3410892163       -2.5690936221        0.8387856626
 H         -6.3497876892        2.5674744187        0.8414659820
 H         -4.9101401940        4.5278816666        1.2870184751
 H         -2.4769761227        4.3797373066        0.8339879697
 H         -1.5227312805        2.3221271984       -0.0750603798
  72
  -113.914930920000       0.385050546209902      !
 C         -2.2307688740        0.1434664243       -3.1864334842
 C         -3.1350401252        0.1128077057       -2.2008523374
 C         -2.7804499406        0.0310899251       -0.7354568843
 C         -1.3122849197        0.0791154691       -0.4779104305
 C         -0.4209698007        0.1050499567       -1.4792337545
 C         -0.8329015428        0.1187284021       -2.8898382084
 C          0.2848393950        0.0985763767       -3.6601443866
 C          1.4446715128        0.0680203353       -2.7886550739
 C          1.0152939922        0.0842770101       -1.4730797572
 C          1.9119884841        0.0714395580       -0.2760204109
 C          3.3416512061       -0.0313809576       -0.7145865486
 C          4.4815505546       -0.1118922726        0.0382453821
 C          4.7025626453       -0.1367720229        1.4401741218
 C          5.9728137567       -0.2343998106        1.9047030805
 C          7.0868161761       -0.3103806539        1.0163934983
 C          6.9292004205       -0.2880812148       -0.3321740217
 C          5.6240947405       -0.1879451586       -0.8756913868
 C          5.1651650160       -0.1473890070       -2.1711865652
 C          3.7414265888       -0.0521645138       -2.1222178056
 C          2.8180425607        0.0036202086       -3.1291469130
 C          1.5575025906       -1.1646287761        0.5309717472
 C          1.7803988723       -2.3924384402       -0.0875772436
 C          1.4637687837       -3.5846179253        0.5318403067
 C          0.9130938930       -3.5735822018        1.8045727279
 C          0.6887800977       -2.3692269159        2.4357055746
 C          1.0055260984       -1.1688076260        1.8030481286
 S          0.6317095148        0.2898493326        2.7266733207
 C          1.1699985511        1.6001676583        1.6723854665
 C          1.0067081959        2.8831029372        2.1921118933
 C          1.3825833577        3.9886186588        1.4604054535
 C          1.9325534965        3.8163116791        0.1989681234
 C          2.0935694531        2.5437103577       -0.3095928648
 C          1.7161521686        1.4134578717        0.4120468411
 C         -3.3143585185       -1.3061156383       -0.2285976015
 C         -2.4568741293       -2.3855469134       -0.0486749521
 C         -2.9378102328       -3.6220947454        0.3412468368
 C         -4.2941649903       -3.8054510316        0.5533008926
 C         -5.1595145315       -2.7426099086        0.3875285367
 C         -4.6712736050       -1.5003221058        0.0017971234
 S         -5.8460549763       -0.1903945245       -0.1812108059
 C         -4.8205509158        1.1882292622        0.2413413118
 C         -5.4348264688        2.2784065177        0.8448031878
 C         -4.6878657368        3.3842312554        1.1987708133
 C         -3.3250672483        3.3981994226        0.9508629559
 C         -2.7191731047        2.3125705122        0.3453103336
 C         -3.4551950896        1.1905936633       -0.0182056269
 H         -2.5425916338        0.1878165634       -4.2203292588
 H         -4.1917375678        0.1293586262       -2.4186761132
 H         -1.0193458968        0.0581022856        0.5611968152
 H          0.3351359108        0.0978293529       -4.7336033911
 H          3.8612572376       -0.0792442087        2.1149524158
 H          6.1663777427       -0.2561733157        2.9676810552
 H          8.0750003705       -0.3868586120        1.4473852404
 H          7.7787216165       -0.3460175356       -0.9976712896
 H          5.7513026337       -0.1849199138       -3.0697880502
 H          3.1160787565       -0.0132274180       -4.1686282433
 H          2.2106762090       -2.3975959296       -1.0775711469
 H          1.6445639070       -4.5200041451        0.0246143422
 H          0.6604421292       -4.4971206940        2.3023980151
 H          0.2609751597       -2.3358162219        3.4264920512
 H          0.5774367447        2.9919014189        3.1769241287
 H          1.2497259436        4.9777794776        1.8710042685
 H          2.2341653441        4.6721374766       -0.3852997813
 H          2.5232360295        2.4083038127       -1.2901166010
 H         -1.3999848002       -2.2639200128       -0.2293362709
 H         -2.2484258457       -4.4423607968        0.4702022897
 H         -4.6772576316       -4.7698219118        0.8492264980
 H         -6.2197378064       -2.8599509206        0.5515468884
 H         -6.4974360968        2.2442964081        1.0302593853
 H         -5.1677571715        4.2291713731        1.6679709342
 H         -2.7299621050        4.2565565403        1.2227057058
 H         -1.6603404290        2.3436346937        0.1359498899
  72
  -113.913180960000       6.043545703624825E-002 !
 C         -2.2511683940        0.1927636151       -3.4945829863
 C         -3.2047054075        0.1512154039       -2.5549489028
 C         -2.9293558185        0.1204617293       -1.0788313481
 C         -1.4818755153        0.3052352118       -0.7415511793
 C         -0.5379802623        0.2536091623       -1.6930631323
 C         -0.8707705190        0.1975548183       -3.1220794751
 C          0.2882222997        0.1399430190       -3.8276042871
 C          1.3954234981        0.1150213497       -2.8905231432
 C          0.8929622045        0.2047374276       -1.6032720601
 C          1.7091122062        0.1313303535       -0.3526310452
 C          3.1499223174       -0.0937031782       -0.7006876132
 C          4.2345159647       -0.2420602337        0.1208982844
 C          4.3682626251       -0.2656256108        1.5337383549
 C          5.5996686548       -0.4357127804        2.0758443521
 C          6.7580300127       -0.5919760750        1.2578813246
 C          6.6835400733       -0.5771184769       -0.0980439308
 C          5.4229050580       -0.4002661321       -0.7209161892
 C          5.0472174871       -0.3405104783       -2.0423934807
 C          3.6332082330       -0.1492386118       -2.0811820191
 C          2.7798856965       -0.0403933305       -3.1443722820
 C          1.1787654200       -1.0667788616        0.4179270255
 C          1.2472976370       -2.2987292687       -0.2275798750
 C          0.7311157155       -3.4453315045        0.3409314711
 C          0.1282565675       -3.3836898205        1.5877732127
 C          0.0662948452       -2.1779372934        2.2510286144
 C          0.5888959435       -1.0232754407        1.6720794112
 S          0.4314035612        0.4411174676        2.6433527374
 C          1.0881979509        1.7047388056        1.6022848619
 C          1.0546012069        2.9908808053        2.1386362578
 C          1.5321424776        4.0638904760        1.4184231506
 C          2.0495484939        3.8564667342        0.1486609297
 C          2.0830468609        2.5809453291       -0.3765428877
 C          1.6071994867        1.4829951719        0.3361991792
 C         -3.1768113058       -1.2878743865       -0.5247480014
 C         -3.1701282160       -2.3882262652       -1.3728323503
 C         -3.2842241905       -3.6744638304       -0.8790176369
 C         -3.4012798526       -3.8870882774        0.4845356375
 C         -3.4172212858       -2.8065938615        1.3417616116
 C         -3.3017938815       -1.5151294987        0.8414963200
 S         -3.3121980238       -0.2033280832        2.0220465923
 C         -3.9459849821        1.1143894561        1.0276938931
 C         -4.6470063091        2.1155614293        1.6890677737
 C         -5.1542370720        3.1886061526        0.9847408431
 C         -4.9590791140        3.2603614754       -0.3844221947
 C         -4.2610503914        2.2608722259       -1.0374310261
 C         -3.7490629149        1.1683886427       -0.3478138035
 H         -2.5071364930        0.2001021981       -4.5451139602
 H         -4.2493861099        0.0978553764       -2.8267759382
 H         -1.2395931683        0.3991456084        0.3056070133
 H          0.3989326949        0.0939046438       -4.8957419411
 H          3.4935694775       -0.1479338837        2.1555824926
 H          5.7270866230       -0.4558767730        3.1488182802
 H          7.7118292632       -0.7246713248        1.7488192252
 H          7.5665582492       -0.6965603836       -0.7097376525
 H          5.6831594313       -0.4238474438       -2.9033700973
 H          3.1398845153       -0.0933835366       -4.1629569651
 H          1.7155061286       -2.3444588168       -1.1993483818
 H          0.7941548677       -4.3843852012       -0.1873085157
 H         -0.2876059534       -4.2704491014        2.0406580603
 H         -0.3934658521       -2.1042912309        3.2250635130
 H          0.6464300948        3.1273905198        3.1289060168
 H          1.5014461024        5.0552833259        1.8436331289
 H          2.4270940464        4.6869494293       -0.4281194699
 H          2.4919124943        2.4171850216       -1.3618610539
 H         -3.0592277713       -2.2327954254       -2.4344571519
 H         -3.2725309330       -4.5104472434       -1.5611584498
 H         -3.4824559550       -4.8887041458        0.8775986734
 H         -3.5101658886       -2.9454593412        2.4078953520
 H         -4.7813019536        2.0405194784        2.7572736549
 H         -5.6958858647        3.9649152904        1.5025843815
 H         -5.3423334305        4.0985476010       -0.9456480524
 H         -4.0907772460        2.3366691522       -2.1005015986
