  72
       -113.91527558
 C         -2.2258066656        0.0227026088       -3.1982050290
 C         -3.1295970939        0.0126929642       -2.2115128121
 C         -2.7754176257        0.0063022156       -0.7437827252
 C         -1.3061932409        0.0063815101       -0.4894464010
 C         -0.4164757481        0.0129148205       -1.4919669600
 C         -0.8272974477        0.0245898209       -2.9024988049
 C          0.2921147157        0.0353100011       -3.6710555532
 C          1.4516485171        0.0290913587       -2.7979575479
 C          1.0191810008        0.0146029667       -1.4836613606
 C          1.9092820303       -0.0002151820       -0.2824892884
 C          3.3436991506        0.0078778075       -0.7158051449
 C          4.4832109767        0.0028600003        0.0416001266
 C          4.6985331445       -0.0148605677        1.4443276165
 C          5.9703171801       -0.0122506038        1.9146081326
 C          7.0907510180        0.0077366424        1.0312584215
 C          6.9382516037        0.0234522205       -0.3178739302
 C          5.6318182141        0.0213173954       -0.8674233514
 C          5.1762026589        0.0360451154       -2.1647323773
 C          3.7490239948        0.0280446941       -2.1219371456
 C          2.8280371626        0.0371100235       -3.1329045204
 C          1.6265461678       -1.3035252791        0.4455038970
 C          1.9181445123       -2.4765444513       -0.2467482312
 C          1.6691549113       -3.7205157632        0.2964825304
 C          1.1168323367       -3.8190390892        1.5647199370
 C          0.8258775708       -2.6704309322        2.2682710694
 C          1.0765229463       -1.4170119429        1.7129753253
 S          0.6335075740       -0.0425907530        2.7297743710
 C          1.0773752982        1.3598712564        1.7525564178
 C          0.8284277179        2.5970865439        2.3436129465
 C          1.1184371069        3.7647472513        1.6718096057
 C          1.6681989137        3.7016865609        0.4002041868
 C          1.9162776305        2.4734776501       -0.1781636397
 C          1.6256296104        1.2818888902        0.4816680612
 C         -3.3763294990       -1.2515184474       -0.1288824286
 C         -2.5740685326       -2.3585337451        0.1245513196
 C         -3.1106102511       -3.5282391131        0.6303624844
 C         -4.4690378962       -3.6151715546        0.8871121835
 C         -5.2805895343       -2.5251644787        0.6436693158
 C         -4.7360605790       -1.3501788383        0.1402072399
 S         -5.8428735831        0.0009718291       -0.1425151455
 C         -4.7399780140        1.3542487746        0.1443444056
 C         -5.2886636227        2.5268141447        0.6489771851
 C         -4.4804621515        3.6184273027        0.8963071582
 C         -3.1210628232        3.5349429162        0.6436750282
 C         -2.5803048324        2.3675887227        0.1367452242
 C         -3.3794023929        1.2596694529       -0.1223232912
 H         -2.5389082529        0.0287458705       -4.2326660261
 H         -4.1866170858        0.0105904513       -2.4291673143
 H         -1.0121100791        0.0013070077        0.5496080832
 H          0.3438899592        0.0460860302       -4.7444463531
 H          3.8520977052       -0.0299774685        2.1148636410
 H          6.1601669578       -0.0251474930        2.9780801512
 H          8.0797449631        0.0098378554        1.4667467013
 H          7.7929868176        0.0380357304       -0.9790325146
 H          5.7673969610        0.0512672964       -3.0606220623
 H          3.1310127143        0.0522440786       -4.1709001481
 H          2.3495287612       -2.3971421314       -1.2328408487
 H          1.9036204716       -4.6109904744       -0.2663648037
 H          0.9160416212       -4.7845341725        2.0031711895
 H          0.3964401615       -2.7219384230        3.2575259875
 H          0.4010821595        2.6217095183        3.3348035944
 H          0.9188837504        4.7178174048        2.1371482662
 H          1.9014551548        4.6078917840       -0.1375182140
 H          2.3463604796        2.4218459766       -1.1667355312
 H         -1.5173550047       -2.3101965749       -0.0905926230
 H         -2.4639224500       -4.3718987728        0.8169233917
 H         -4.8954623978       -4.5261560529        1.2777941307
 H         -6.3410892163       -2.5690936221        0.8387856626
 H         -6.3497876892        2.5674744187        0.8414659820
 H         -4.9101401940        4.5278816666        1.2870184751
 H         -2.4769761227        4.3797373066        0.8339879697
 H         -1.5227312805        2.3221271984       -0.0750603798
