80
 energy: -99.606571729726 gnorm: 0.000076482110 xtb: 6.7.1 (edcfbbe)
C            3.19229452684549        4.56899109530406        1.27590423803055
C            3.58942493636103        3.78338141920924        0.01709432197041
C            5.11213727976131        3.61750245537819        0.02209533145816
C            3.20117369579269        4.57888638459354       -1.23826745391509
C            2.85392331206086        2.44941303621754        0.00881836204218
C            3.51962091601289        1.22537486475264        0.00349968023498
C            2.82005610630685        0.00559382674509       -0.00270289670839
C            3.52455631765101       -1.21134593045250       -0.00763292712487
C            2.86382496625245       -2.43806118917834       -0.01454533653395
C            3.60472523900414       -3.76904286896885       -0.02226255344268
C            3.21698040944986       -4.55284992761168       -1.28510579518589
C            3.21348551851958       -4.56945680837689        1.22905362081021
C            5.12676975528214       -3.59705953397162       -0.01888279287434
C            1.48342722238622       -2.43054837614350       -0.01408340870756
C            0.71496278379084       -1.23753003994918       -0.00671087100155
C           -0.71019231675048       -1.24041582400175       -0.00197458079140
C           -1.47381316842148       -2.43653689818090        0.00589449177698
C           -2.85416637952218       -2.44962061300234        0.00849959278656
C           -3.58966830287876       -3.78358632476633        0.01754695181719
C           -3.19335173103743       -4.56790937172529        1.27741901300640
C           -5.11238484505059       -3.61770914677148        0.02136593545461
C           -3.20059166290888       -4.58036426587218       -1.23674870461420
C           -3.51986244216860       -1.22558713152069        0.00211102055263
C           -2.82029848761518       -0.00580847265512       -0.00419438848761
C           -3.52479609502273        1.21113564264745       -0.00994597415882
C           -2.86405365377606        2.43785102336073       -0.01624058200045
C           -3.60491836618433        3.76885188100860       -0.02392279221703
C           -3.21323939675761        4.55531053422442       -1.28390182519608
C           -5.12696543107857        3.59687855590550       -0.02591486357666
C           -3.21755913379160        4.56663428881834        1.23027740518650
C           -1.48365618731379        2.43033425393850       -0.01452786361707
C           -0.71520036412787        1.23730853738021       -0.00707850153021
C            0.70995255052410        1.24019659079334       -0.00183777711976
C            1.47357000192415        2.43632780981429        0.00569565898975
C            1.40057868941499        0.00272354791338       -0.00379070689915
C           -1.40081948045472       -0.00294510028153       -0.00446924770660
H            3.43994863908170        3.99828932707549        2.16909738636858
H            3.72760424037646        5.51576386983198        1.31122785844783
H            2.12660359204858        4.78080350817210        1.29376920260563
H            5.45124214668951        3.08893543355690       -0.86609719104768
H            5.44415734633766        3.07979420496181        0.90749295685762
H            5.58324115942946        4.59865752211734        0.02897257939352
H            2.13557611288298        4.79070154059466       -1.26173933791926
H            3.73665353460013        5.52590867736971       -1.26245293321049
H            3.45501017637883        4.01521984584229       -2.13419192648660
H            4.59603353852576        1.17822160354389        0.00477153732911
H            4.60077138245562       -1.15984038322452       -0.00682160186460
H            3.46849080456578       -3.97956287361847       -2.17556564207574
H            2.15188014389450       -4.76703264628943       -1.30966392949913
H            3.75477000259361       -5.49825594450966       -1.31935430243051
H            3.75364141919137       -5.51380001419657        1.25398795349242
H            3.45948598153002       -4.00664348744517        2.12769544468670
H            2.14891303051223       -4.78687388372574        1.24616244108087
H            5.46156039718955       -3.05684111897694       -0.90168974417332
H            5.45877127868642       -3.06832021209800        0.87190266286833
H            5.60180821476055       -4.57632034448268       -0.02453042444791
H            0.96478531231628       -3.37355992885394       -0.02071090637018
H           -0.95135905080471       -3.37744827500189        0.01143806547614
H           -3.72847321359167       -5.51477061196827        1.31322602611333
H           -2.12762165408878       -4.77944387232590        1.29632623746302
H           -3.44183682161418       -3.99640986452311        2.16987207982447
H           -5.58348230851699       -4.59886342283838        0.02877254322955
H           -5.44503223143156       -3.07924192904677        0.90606602958000
H           -5.45087413851472       -3.08991359177972       -0.86752111404685
H           -3.73622441512174       -5.52731307002134       -1.26042202097616
H           -2.13502049485754       -4.79241380130196       -1.25919693153679
H           -3.45364254571540       -4.01752673089513       -2.13341637370556
H           -4.59627753237708       -1.17843735996825        0.00276489719778
H           -4.60101111615027        1.15963612884961       -0.01005598228538
H           -3.46084721201758        3.98338862834261       -2.17632756266551
H           -3.75188055235652        5.50022139855833       -1.31843923669065
H           -2.14831508902740        4.77075412732045       -1.30414605828132
H           -5.60199219687622        4.57614218918058       -0.03213164125544
H           -5.45859744987101        3.05758915079620       -0.91049115385001
H           -5.46213976446885        3.06719861527759        0.86311014641260
H           -3.75695134276916        5.51141831421949        1.25501387637112
H           -2.15282574836752        4.78294993883660        1.25159348831937
H           -3.46729151263947        4.00237154366157        2.12698057424454
H           -0.96500875301406        3.37334666097175       -0.02010018362595
H            0.95111579045559        3.37724202951374        0.01035989909162
