80
 energy: -99.670487892324 gnorm: 0.000107757587 xtb: 6.7.1 (edcfbbe)
C            3.18169338035852        4.55463855323952        1.27663189784371
C            3.58891119182743        3.77489222303602        0.01746557133875
C            5.11335076469942        3.62556123534703        0.02323836880796
C            3.19188161029130        4.56578454102640       -1.23798666647160
C            2.87280177195231        2.43190459938688        0.00856643912217
C            3.53024112689853        1.22782107787873        0.00332517682317
C            2.82813357917093        0.00564339188957       -0.00327854463227
C            3.53515151967198       -1.21371201110960       -0.00836749220073
C            2.88255435289396       -2.42042084771706       -0.01515261444494
C            3.60395350184565       -3.76057546565968       -0.02263673541901
C            3.20801830083452       -4.53825599603899       -1.28666393525462
C            3.20187827897600       -4.55660077750323        1.22798745447870
C            5.12779838842582       -3.60531663198029       -0.01754897231027
C            1.47900905662222       -2.40573884071037       -0.01469518260871
C            0.73248015267464       -1.24301992866735       -0.00766742418935
C           -0.72746663704803       -1.24598147286367       -0.00287829515754
C           -1.46929659067869       -2.41170949227686        0.00486791156793
C           -2.87276950585474       -2.43202516357614        0.00813331366563
C           -3.58889301058913       -3.77498651105491        0.01809679749316
C           -3.18269182750658       -4.55305423491596        1.27862895371152
C           -5.11332621780752       -3.62561978954339        0.02266121588919
C           -3.19105440791000       -4.56750330041007       -1.23606772345145
C           -3.53021707050302       -1.22795906770344        0.00173020411733
C           -2.82811959595794       -0.00579097012648       -0.00487869634680
C           -3.53519376665539        1.21350218959365       -0.01053100349243
C           -2.88267670020722        2.42024986852721       -0.01659898044467
C           -3.60438948860596        3.76023827483495       -0.02408928407056
C           -3.20342707835844        4.54139357475303       -1.28437861437355
C           -5.12819994053981        3.60450641442424       -0.02609512874086
C           -3.20781593304407        4.55301225668480        1.23032997145320
C           -1.47911740495002        2.40567143169598       -0.01464951982563
C           -0.73251359009126        1.24297718416366       -0.00783780125173
C            0.72745455758294        1.24591724778762       -0.00249814517334
C            1.46932002144384        2.41162603550885        0.00478191468413
C            1.41250807801561        0.00281991525914       -0.00444301320114
C           -1.41250699191561       -0.00289114486864       -0.00529866017246
H            3.43733088628540        3.98672142898948        2.16935409018464
H            3.70509299187058        5.50805019872589        1.31189820444225
H            2.11351187151932        4.75357939021417        1.29584494629643
H            5.45802432857947        3.10052895573256       -0.86487320315807
H            5.44999913303523        3.09001669933045        0.90816093265233
H            5.57452774227996        4.61135347770017        0.03112514475670
H            2.12395370262873        4.76543925529937       -1.26355985014670
H            3.71602137324642        5.51916499489613       -1.26088767996710
H            3.45406985013649        4.00557945658643       -2.13367657005571
H            4.60718782168136        1.17552929116919        0.00448565076534
H            4.61188109015408       -1.15710898209126       -0.00715390932768
H            3.46838785312247       -3.96735321027471       -2.17612070729424
H            2.14048634888496       -4.73985465959459       -1.31386991769871
H            3.73423171743111       -5.49016473956103       -1.32060397107956
H            3.73136502082701       -5.50697230752912        1.25273412031856
H            3.45392836353817       -3.99695965430157        2.12694197613742
H            2.13502882245146       -4.76272274574700        1.24498205704992
H            5.46886673530516       -3.06791100938022       -0.89963094460186
H            5.46377688623697       -3.07944542299069        0.87340631039256
H            5.59288590658729       -4.58928941791112       -0.02268479389765
H            0.96970597654450       -3.35477569543874       -0.02018861606321
H           -0.95617693644348       -3.35869944868326        0.00909557319277
H           -3.70555666179107       -5.50673579916642        1.31444509847117
H           -2.11442420899030       -4.75132548199915        1.29914217355651
H           -3.43953133395305       -3.98426027040776        2.17044678947804
H           -5.57460262764871       -4.61134847151337        0.03232011410299
H           -5.45053515960180       -3.08819138396397        0.90621953025418
H           -5.45732286771748       -3.10240113265543       -0.86677427027642
H           -3.71598676775048       -5.52045613304255       -1.25858203423326
H           -2.12328047810254       -4.76814436672405       -1.26007864406594
H           -3.45164414998008       -4.00804319307207       -2.13269499098415
H           -4.60715919085050       -1.17565035641028        0.00217824376085
H           -4.61191157911383        1.15678473214513       -0.01009444969971
H           -3.45907145411449        3.97237727869304       -2.17639723267543
H           -3.73063117327392        5.49274625264495       -1.31841599402505
H           -2.13607412052294        4.74447154677787       -1.30625113857370
H           -5.59356459318781        4.58833427341014       -0.03331060241138
H           -5.46476394517635        3.06712419961937       -0.90992841849472
H           -5.46839899899296        3.07840707220217        0.86312234841911
H           -3.73660718311750        5.50378277219186        1.25473950334848
H           -2.14084247703687        4.75799829070684        1.25291155658919
H           -3.46468951757988        3.99148331422298        2.12674057197743
H           -0.96987750356802        3.35475521249830       -0.01876353300379
H            0.95621140615155        3.35862661657711        0.00811520223024
