80
 energy: -99.607849346660 gnorm: 0.000107675065 xtb: 6.7.1 (edcfbbe)
C            4.55296147168113        3.79787681204892        1.14761889027238
C            3.67456112272514        3.72497268642917       -0.11038355853573
C            4.56145967381913        3.70909179850462       -1.36440363978246
C            2.80662797562097        4.98630441907193       -0.15876395483204
C            2.85503396170501        2.44263023695953       -0.06570781804561
C            3.51835318550367        1.21408187715421       -0.03073187918742
C            2.82091382413478       -0.00378350215372        0.00052311502220
C            3.51530263481583       -1.22341510109335        0.03082997847700
C            2.84892092556139       -2.45025504211438        0.06754308727365
C            3.66522613580316       -3.73461019547736        0.11286636550607
C            4.54401666322106       -3.81060944618113       -1.14466140049821
C            2.79396002747237       -4.99363874611203        0.16165263573494
C            4.55147539096193       -3.71987154712884        1.36738716119962
C            1.47172674976341       -2.43945737247357        0.05866731324889
C            0.71101201552698       -1.23959634814404        0.01648694865731
C           -0.71412895260226       -1.23778538968761       -0.00966616952431
C           -1.47791459371893       -2.43571439626266       -0.05143290803180
C           -2.85512945337759       -2.44296743941459       -0.06089836490829
C           -3.67477788865944       -3.72517884686661       -0.10654981858987
C           -4.55502537407393       -3.79861065115529        1.15010111141375
C           -4.55973039604585       -3.70831930370343       -1.36197321845247
C           -2.80679823600166       -4.98650744505368       -0.15420365523725
C           -3.51836196298281       -1.21440875125545       -0.02482385278819
C           -2.82084897677004        0.00343081480467        0.00544319791172
C           -3.51518034554198        1.22306905525645        0.03633084486812
C           -2.84873564258193        2.44994346649482        0.07054407198259
C           -3.66505907775538        3.73434579097282        0.11452990561508
C           -4.55208226485708        3.72125389801235        1.36850107645068
C           -2.79400722938311        4.99354868998614        0.16234694688703
C           -4.54319555391555        3.80877791727697       -1.14356096705349
C           -1.47155411666352        2.43914437050690        0.05935558798301
C           -0.71092872339507        1.23924008613979        0.01701872224948
C            0.71414593275665        1.23740411796136       -0.01159087694558
C            1.47782639670287        2.43532997814000       -0.05471973281286
C            1.39950685188732       -0.00197052388240        0.00180582123836
C           -1.39944654834400        0.00160982644682        0.00431115864963
H            5.23887421353869        2.95683112041586        1.20165861802279
H            5.13837354588383        4.71517818150626        1.14337757400049
H            3.93184343508260        3.78825045531433        2.04152983149913
H            3.94640650235123        3.63424197717620       -2.25938919939524
H            5.24960481317531        2.86830226878233       -1.35393004864826
H            5.14519420673659        4.62569603032794       -1.42196756680993
H            2.17885507750566        5.06492403249209        0.72624637964937
H            3.44777078333781        5.86519115976742       -0.19305502659456
H            2.17813044162800        4.99560796291237       -1.04678764152557
H            4.59711372633634        1.17348736551180       -0.03193284365136
H            4.59416122607903       -1.18556523579367        0.03025421298459
H            5.23187422688040       -2.97119259227065       -1.19928935588546
H            3.92338612917114       -3.80062094939144       -2.03891092533392
H            5.12738687090651       -4.72919784400129       -1.13909287000553
H            3.43292954094039       -5.87408331483297        0.19615741350808
H            2.16551701079184       -5.00119607571671        1.04973178178058
H            2.16593298524470       -5.07094220987581       -0.72330615779083
H            5.24164460181180       -2.88072933353635        1.35658448850581
H            3.93612416010876       -3.64280335340141        2.26199447954961
H            5.13291053273156       -4.63786055607692        1.42597094799995
H            0.94257714117296       -3.37355646364098        0.09169986944257
H           -0.95116616765893       -3.37119535233424       -0.08381554959720
H           -5.14185614196537       -4.71498886878872        1.14341106108502
H           -3.93520378463443       -3.79151946789549        2.04493617364522
H           -5.23976025946912       -2.95664353681461        1.20462088342458
H           -5.14257142733476       -4.62533832259113       -1.42169736620787
H           -5.24857717263475       -2.86809079210751       -1.35135617468841
H           -3.94336823090622       -3.63170709547548       -2.25591787071744
H           -3.44804009408588       -5.86530473389513       -0.18861946176234
H           -2.17950151050231       -5.06499421090317        0.73116577765591
H           -2.17784581834636       -4.99616234067283       -1.04190309425444
H           -4.59711803367426       -1.17376517488454       -0.02481296017292
H           -4.59403755762789        1.18520376606578        0.03778637369830
H           -3.93733037381994        3.64432999885593        2.26352147515655
H           -5.13282239960779        4.63975872328961        1.42610114181643
H           -5.24297592811563        2.88272329766050        1.35791324956171
H           -3.43299183178941        5.87401917197549        0.19623764581750
H           -2.16548570140323        5.00169551057297        1.05036169415804
H           -2.16604807791621        5.07023721480272       -0.72270183284266
H           -3.92196736582679        3.79833510593437       -2.03738632514282
H           -5.12722751505692        4.72695662042459       -1.13926782045253
H           -5.23034690530989        2.96875433349544       -1.19783327310725
H           -0.94234091002433        3.37328670565199        0.09039751574306
H            0.95097751506444        3.37077965834708       -0.08651737499326
