  102
  -170.165261450000       0.237817403657117      !
 C         10.3513870168       -2.3909672083       -3.1531543737
 C          8.9873346250       -2.5660900399       -3.0181275410
 C          8.2941003024       -1.9230216258       -2.0058978444
 C          8.9583244131       -1.0977402050       -1.1047328155
 C         10.3398052581       -0.9090723497       -1.2638068464
 C         11.0257329674       -1.5550131743       -2.2760956925
 O         11.0643274913       -0.0799799938       -0.4467381139
 C         10.3912777434        0.5707507321        0.5549700410
 C         11.1311646671        1.4005905707        1.3773237017
 C         10.5182888267        2.0729449951        2.4238592657
 C          9.1658411824        1.9001678489        2.6487720742
 C          8.4182591649        1.0714459914        1.8282641533
 C          9.0129254286        0.4062044987        0.7614411636
 N          8.2925737143       -0.4343594064       -0.0797633739
 C          6.8997305948       -0.6128454818        0.1023090961
 C          6.4040277833       -1.8422324510        0.5358912756
 C          5.0509989705       -2.0212546696        0.7031924931
 C          4.1558626618       -0.9738657389        0.4367927967
 C          2.7457480570       -1.1665290231        0.5896677993
 N          2.2821928567       -2.3808523202        1.0581189026
 N          1.0388953009       -2.6057340384        1.0685587119
 C          0.1136611313       -1.7515036302        0.7267484540
 C         -1.2640337853       -2.1592528059        0.5750967110
 C         -1.8488615426       -3.0714402504        1.4595050683
 C         -3.1914498510       -3.3711812556        1.3734907648
 C         -3.9782607194       -2.7803273269        0.3863372551
 N         -5.3713141966       -3.0060849290        0.3369626198
 C         -5.8888601844       -4.2731828402        0.0805876225
 C         -5.0730996157       -5.3762212691       -0.1442895134
 C         -5.6221722940       -6.6237643103       -0.3938758251
 C         -6.9927911209       -6.7896019922       -0.4329839322
 C         -7.8207013404       -5.6936813052       -0.2411300473
 C         -7.2790280479       -4.4455702370        0.0055871774
 O         -8.1576255172       -3.4018685486        0.1511695402
 C         -7.6315366675       -2.1593402823        0.3960555372
 C         -8.5261753482       -1.1153682245        0.5469342327
 C         -8.0686726474        0.1625369350        0.8303512905
 C         -6.7139635505        0.3831683715        0.9820178324
 C         -5.8124100384       -0.6572378201        0.8268486631
 C         -6.2509800363       -1.9378488539        0.5075350148
 C         -3.3857861259       -1.9351497546       -0.5501933919
 C         -2.0493323386       -1.6255808170       -0.4574514092
 C          0.5873823633       -0.3809955748        0.4293700272
 C         -0.3199482632        0.7274917897        0.3032214732
 C         -1.5266294473        0.7644908143        1.0245567378
 C         -2.4340363947        1.7744042284        0.8170689556
 C         -2.1749179117        2.7758233090       -0.1184029338
 N         -3.1691580669        3.7403355539       -0.3976592825
 C         -4.3878438543        3.3344158051       -0.9376237448
 C         -4.6254659606        2.0210765114       -1.3294710412
 C         -5.8527381308        1.6486876223       -1.8531380446
 C         -6.8602963952        2.5809430361       -2.0040306122
 C         -6.6289225001        3.9019980614       -1.6513823885
 C         -5.4043083450        4.2813140058       -1.1325987906
 O         -5.2345865112        5.6096458663       -0.8369731461
 C         -4.0199630446        5.9964853533       -0.3290505370
 C         -3.8582845542        7.3385672042       -0.0385783646
 C         -2.6690430325        7.7969250337        0.5082666257
 C         -1.6520985100        6.9016267023        0.7771986357
 C         -1.8067879940        5.5558142919        0.4862044965
 C         -2.9814641813        5.0841529911       -0.0888568152
 C         -0.9481628784        2.7935894805       -0.7821659398
 C         -0.0299480740        1.7918235508       -0.5641440485
 N          1.8846815998       -0.2092162283        0.3133989283
 C          4.6661157228        0.2621296954        0.0084452025
 C          6.0192177915        0.4384919203       -0.1555360069
 H         10.8937795971       -2.8920858911       -3.9390174054
 H          8.4494135595       -3.2034312554       -3.7028000427
 H          7.2277699684       -2.0554150236       -1.9138800508
 H         12.0871792953       -1.3867236598       -2.3628721182
 H         12.1868821144        1.5032928296        1.1838399635
 H         11.1021420527        2.7191862608        3.0597317785
 H          8.6808111145        2.4072451507        3.4684342830
 H          7.3656756752        0.9314538004        2.0170426369
 H          7.0946553963       -2.6476515135        0.7395411643
 H          4.6531080013       -2.9647623663        1.0418722680
 H         -1.2397543353       -3.5097633498        2.2351803385
 H         -3.6471119975       -4.0432929583        2.0856697922
 H         -4.0018121909       -5.2541992169       -0.1325853288
 H         -4.9663848367       -7.4640096421       -0.5612599412
 H         -7.4236729328       -7.7597400337       -0.6225906183
 H         -8.8941495155       -5.7850882902       -0.2853739852
 H         -9.5786475867       -1.3262305308        0.4441659504
 H         -8.7717050301        0.9724600009        0.9413771728
 H         -6.3479756485        1.3696813919        1.2201315423
 H         -4.7578113073       -0.4745734365        0.9556158075
 H         -3.9900039749       -1.5177111665       -1.3422398001
 H         -1.5960212832       -0.9800414446       -1.1940198582
 H         -1.7293005342        0.0099313038        1.7684973105
 H         -3.3618752866        1.7972013004        1.3700221125
 H         -3.8429517380        1.2871964484       -1.2232252631
 H         -6.0161728319        0.6216773634       -2.1406964720
 H         -7.8195079469        2.2916702979       -2.4025020010
 H         -7.3870364157        4.6584406123       -1.7761860589
 H         -4.6785672195        8.0080264941       -0.2423188100
 H         -2.5505917463        8.8455652694        0.7298428046
 H         -0.7289502548        7.2424202998        1.2199207555
 H         -1.0137674983        4.8617386658        0.7144897604
 H         -0.7366831673        3.5839931156       -1.4874556268
 H          0.9106823021        1.7876065009       -1.0930051677
 H          3.9747524767        1.0654295956       -0.1927554668
 H          6.4136188377        1.3867862006       -0.4909185959
  102
  -170.165216090000       0.226671866499558      !
 C         10.2917294227       -2.5130231223       -3.0978091007
 C          8.9299674260       -2.6916837958       -2.9454644646
 C          8.2392426298       -2.0110260823       -1.9563394054
 C          8.9037105886       -1.1436877261       -1.0957896560
 C         10.2824961975       -0.9521238989       -1.2731515602
 C         10.9659750153       -1.6356384886       -2.2622068613
 O         11.0068073196       -0.0835757679       -0.4980690118
 C         10.3348519913        0.6107157148        0.4747477321
 C         11.0732676974        1.4866875255        1.2492424096
 C         10.4620729913        2.2049672944        2.2657818577
 C          9.1130257376        2.0314609599        2.5096410242
 C          8.3670175310        1.1566037879        1.7369742271
 C          8.9594982758        0.4450919114        0.6991392140
 N          8.2405965453       -0.4423106027       -0.0941987283
 C          6.8490633882       -0.6154334387        0.1000549472
 C          6.3562398241       -1.8287055338        0.5796879573
 C          5.0038870948       -2.0025786470        0.7588024029
 C          4.1074079347       -0.9656035134        0.4601702949
 C          2.6972755503       -1.1522269483        0.6272373101
 N          2.2350161179       -2.3547698177        1.1250774172
 N          0.9901940130       -2.5779818487        1.1411525799
 C          0.0661286443       -1.7287683981        0.7867148298
 C         -1.3090846936       -2.1470169622        0.6347766450
 C         -1.8914930531       -3.0477660526        1.5317753464
 C         -3.2243116276       -3.3817909947        1.4251398606
 C         -4.0024892245       -2.8398599675        0.4035510695
 N         -5.3818036678       -3.1268483310        0.3171933582
 C         -5.8319315475       -4.4274048444        0.0995236869
 C         -4.9597292883       -5.4979413048       -0.0625715234
 C         -5.4424834620       -6.7797979696       -0.2719737029
 C         -6.8022773453       -7.0137192045       -0.3342262670
 C         -7.6854686757       -5.9521194563       -0.2080346714
 C         -7.2097801037       -4.6702219929       -0.0013965966
 O         -8.1403383782       -3.6654553503        0.0787222623
 C         -7.6805097390       -2.3896352312        0.2818943099
 C         -8.6283362121       -1.3857566522        0.3647173813
 C         -8.2409766439       -0.0759683506        0.6037446674
 C         -6.9030416822        0.2175802326        0.7795928950
 C         -5.9483339456       -0.7827233213        0.6913835382
 C         -6.3156028941       -2.0961524554        0.4179375546
 C         -3.4130533160       -1.9938468983       -0.5343265599
 C         -2.0872112038       -1.6473551112       -0.4192519925
 C          0.5387777336       -0.3651496950        0.4620118340
 C         -0.3586732648        0.7479698782        0.3241464736
 C         -1.5752875234        0.7996708574        1.0281394537
 C         -2.4563846263        1.8342879630        0.8274382706
 C         -2.1607717510        2.8475456439       -0.0841845582
 N         -3.1149827930        3.8559600326       -0.3464049766
 C         -4.3448270617        3.5194998100       -0.9074664932
 C         -4.6571438465        2.2191828517       -1.2906578428
 C         -5.8936595458        1.9188484685       -1.8388005463
 C         -6.8367017130        2.9110855267       -2.0221064968
 C         -6.5304949901        4.2186783046       -1.6761496127
 C         -5.2963409454        4.5258202892       -1.1328200762
 O         -5.0517531704        5.8441775024       -0.8455016794
 C         -3.8334777083        6.1589233115       -0.2986420497
 C         -3.6016378752        7.4892137861       -0.0012984338
 C         -2.4053535156        7.8761324026        0.5840143317
 C         -1.4532028730        6.9216865006        0.8851203438
 C         -1.6781048681        5.5875368155        0.5866766904
 C         -2.8590595800        5.1864747917       -0.0282212644
 C         -0.9286945346        2.8428980255       -0.7390720074
 C         -0.0376241257        1.8165137383       -0.5284943621
 N          1.8379192810       -0.2004707581        0.3340960232
 C          4.6144773236        0.2543660069       -0.0142418676
 C          5.9665600155        0.4252931844       -0.1916769634
 H         10.8322055802       -3.0434093381       -3.8655903293
 H          8.3919001025       -3.3615218198       -3.5982273236
 H          7.1745321923       -2.1468764026       -1.8513679889
 H         12.0254476034       -1.4632862123       -2.3640908972
 H         12.1265893916        1.5886351043        1.0427274682
 H         11.0445987883        2.8872513464        2.8642330415
 H          8.6293926803        2.5740438289        3.3071357930
 H          7.3173674779        1.0167083213        1.9414839705
 H          7.0483616659       -2.6257031471        0.8094301649
 H          4.6078321417       -2.9337864086        1.1318627455
 H         -1.2885907600       -3.4535784227        2.3296101673
 H         -3.6788966120       -4.0476815264        2.1437159360
 H         -3.8958958145       -5.3248601354       -0.0331001270
 H         -4.7431252880       -7.5930914047       -0.3891433974
 H         -7.1817117386       -8.0107620640       -0.4916225795
 H         -8.7518999845       -6.0969643144       -0.2731587240
 H         -9.6660210725       -1.6528336311        0.2446796443
 H         -8.9850283299        0.7021804307        0.6621420693
 H         -6.5906487887        1.2299401275        0.9829340100
 H         -4.9080762062       -0.5416137937        0.8396335061
 H         -4.0093546544       -1.6097203472       -1.3489681883
 H         -1.6352081647       -1.0026486451       -1.1573001023
 H         -1.8053403627        0.0388172316        1.7573756407
 H         -3.3885389103        1.8704197351        1.3725581943
 H         -3.9257285030        1.4378002575       -1.1612007135
 H         -6.1146617010        0.9003269828       -2.1177651632
 H         -7.8028975279        2.6786519910       -2.4404988787
 H         -7.2361657107        5.0200994104       -1.8255354985
 H         -4.3733046496        8.2064354520       -0.2307649617
 H         -2.2314176747        8.9160930619        0.8101496115
 H         -0.5264684844        7.2067212407        1.3587054986
 H         -0.9354985302        4.8475622538        0.8393036383
 H         -0.6907253911        3.6400317331       -1.4282445993
 H          0.9081803621        1.7980387233       -1.0475688609
 H          3.9216027819        1.0495471425       -0.2406144362
 H          6.3585896789        1.3608998761       -0.5634274198
  102
  -170.165213070000       0.225948636484165      !
 C         10.3254619275       -2.8982832199       -2.8109944263
 C          8.9613355381       -3.0492575615       -2.6505521891
 C          8.2664435132       -2.2485188129       -1.7592255415
 C          8.9282651064       -1.2861096553       -1.0038083275
 C         10.3087699942       -1.1220059652       -1.1951728864
 C         10.9967834527       -1.9258644050       -2.0858212300
 O         11.0314190850       -0.1637078777       -0.5327231014
 C         10.3586134409        0.6413885112        0.3496292849
 C         11.0978487025        1.6016003536        1.0160571550
 C         10.4877595472        2.4341483139        1.9417564754
 C          9.1393624284        2.2888535190        2.2065677315
 C          8.3926794005        1.3302546868        1.5415765133
 C          8.9828240154        0.5046295517        0.5903373757
 N          8.2620215163       -0.4659816496       -0.0979154044
 C          6.8709657504       -0.6147299694        0.1123794179
 C          6.3717152185       -1.7862449873        0.6823637137
 C          5.0186180611       -1.9425979841        0.8680642312
 C          4.1256738398       -0.9273212087        0.4920330192
 C          2.7152922118       -1.1022183046        0.6612269817
 N          2.2484286037       -2.2873369356        1.1945863131
 N          1.0065983763       -2.5163178258        1.1993293306
 C          0.0839747460       -1.6821783644        0.8010260029
 C         -1.2835608697       -2.1093552017        0.6278540392
 C         -1.8655615228       -3.0363238141        1.4995552349
 C         -3.1957126373       -3.3749687495        1.3790492611
 C         -3.9733413135       -2.8096559552        0.3696552369
 N         -5.3529032029       -3.0949702527        0.2724424121
 C         -5.8020211216       -4.3834010565       -0.0069745090
 C         -4.9293225824       -5.4488283303       -0.1973744406
 C         -5.4112926637       -6.7190465028       -0.4693592725
 C         -6.7703448154       -6.9456748408       -0.5661814608
 C         -7.6534643229       -5.8879478055       -0.4101022391
 C         -7.1786732426       -4.6174720590       -0.1407542119
 O         -8.1080557181       -3.6140691471       -0.0327719934
 C         -7.6487673910       -2.3499816703        0.2351504800
 C         -8.5946793551       -1.3473336089        0.3487261575
 C         -8.2068838618       -0.0512078310        0.6526549993
 C         -6.8708243426        0.2296662074        0.8607933862
 C         -5.9177180860       -0.7687285314        0.7412586660
 C         -6.2852818603       -2.0673123654        0.4045741722
 C         -3.3841175751       -1.9406547490       -0.5468368259
 C         -2.0601147202       -1.5926729734       -0.4203972364
 C          0.5591263392       -0.3213888034        0.4630910518
 C         -0.3462172718        0.7865595612        0.3245405326
 C         -1.5545299906        0.8288290189        1.0433526756
 C         -2.4519945345        1.8488268393        0.8434618279
 C         -2.1812411260        2.8569656271       -0.0815306587
 N         -3.1546656664        3.8491559398       -0.3352163696
 C         -4.3954157132        3.4831495982       -0.8523516306
 C         -4.6739343418        2.1835059984       -1.2629932489
 C         -5.9204249916        1.8516616341       -1.7683398476
 C         -6.9077340951        2.8111091612       -1.8792367758
 C         -6.6370753072        4.1186789359       -1.5050233634
 C         -5.3926148523        4.4578453379       -1.0059780861
 O         -5.1848231013        5.7752417764       -0.6868183876
 C         -3.9514533248        6.1222888791       -0.1959406026
 C         -3.7532881687        7.4530893117        0.1227431663
 C         -2.5428218536        7.8716937848        0.6544919845
 C         -1.5412227977        6.9477423902        0.8802767138
 C         -1.7328125643        5.6130479260        0.5616342120
 C         -2.9296357452        5.1812429179        0.0010165866
 C         -0.9582423047        2.8619426776       -0.7526003946
 C         -0.0502205780        1.8493055810       -0.5429326288
 N          1.8566602415       -0.1555912609        0.3405641795
 C          4.6392961333        0.2541398450       -0.0660705172
 C          5.9920572796        0.4051233842       -0.2557414979
 H         10.8695879754       -3.5233806640       -3.5009899386
 H          8.4245684502       -3.7925394575       -3.2194837786
 H          7.2000477015       -2.3654684285       -1.6503468901
 H         12.0575981516       -1.7704743488       -2.2001454409
 H         12.1512440357        1.6774053575        0.7988737092
 H         11.0709656214        3.1812073075        2.4563026286
 H          8.6570210270        2.9183333614        2.9382926866
 H          7.3441712412        1.2138297824        1.7651715720
 H          7.0601481600       -2.5654056418        0.9757664688
 H          4.6186510022       -2.8428232949        1.3071663109
 H         -1.2631358009       -3.4580314429        2.2893684005
 H         -3.6496328406       -4.0614155681        2.0784620033
 H         -3.8659243247       -5.2798976389       -0.1407166094
 H         -4.7119698800       -7.5288957590       -0.6085540891
 H         -7.1489746564       -7.9336479476       -0.7743071602
 H         -8.7188041134       -6.0266997639       -0.5009999311
 H         -9.6312373789       -1.6044985936        0.2005542946
 H         -8.9493875116        0.7262609128        0.7348588061
 H         -6.5591692426        1.2308196427        1.1145471549
 H         -4.8785170409       -0.5388695822        0.9131629630
 H         -3.9802840243       -1.5382858962       -1.3527702251
 H         -1.6088166890       -0.9315061650       -1.1439898669
 H         -1.7646329089        0.0717107805        1.7824882500
 H         -3.3787785413        1.8769368313        1.3980124848
 H         -3.9079779463        1.4285182406       -1.1870643299
 H         -6.1148319733        0.8347889532       -2.0718885171
 H         -7.8818455951        2.5530311978       -2.2627059184
 H         -7.3793155960        4.8953335417       -1.5971401184
 H         -4.5622109921        8.1453261018       -0.0474871389
 H         -2.3954036058        8.9119827657        0.8971409399
 H         -0.6009453210        7.2569678842        1.3099425080
 H         -0.9511959283        4.8966741246        0.7578834981
 H         -0.7406073780        3.6537923390       -1.4544086171
 H          0.8884050004        1.8375651723       -1.0750886728
 H          3.9503120295        1.0336502476       -0.3514024062
 H          6.3871407845        1.3080035900       -0.6985654229
  102
  -170.164984140000       0.177337581496880      !
 C         10.1380305482       -0.5450154861       -3.7826553435
 C          8.7738517255       -0.7372278033       -3.6740829287
 C          8.1558886378       -0.6968987130       -2.4350120647
 C          8.8950444621       -0.4553693982       -1.2818577625
 C         10.2822722835       -0.2774996877       -1.4008508974
 C         10.8924394263       -0.3196008018       -2.6410637358
 O         11.0890582798       -0.0671929895       -0.3122853188
 C         10.4935428132       -0.0347755467        0.9224658992
 C         11.3139933053        0.1801525519        2.0146753041
 C         10.7747177307        0.2430265166        3.2907394643
 C          9.4111632262        0.1006318438        3.4649062862
 C          8.5833228180       -0.1152914500        2.3755814598
 C          9.1099434093       -0.1996479469        1.0910213721
 N          8.3077469038       -0.4134456485       -0.0233911071
 C          6.9097924974       -0.5976900524        0.1252027937
 C          6.4183904527       -1.7632946636        0.7121523132
 C          5.0636399195       -1.9425664857        0.8637738632
 C          4.1617419983       -0.9579340232        0.4293297548
 C          2.7523848344       -1.1434606347        0.5817035358
 N          2.2819266755       -2.3125704905        1.1451686536
 N          1.0425652794       -2.5329156061        1.1836426156
 C          0.1141710184       -1.7119615751        0.7600177274
 C         -1.2626962615       -2.1239581976        0.6547397424
 C         -1.8249623290       -3.0108599495        1.5813976815
 C         -3.1672069604       -3.3184408560        1.5360832169
 C         -3.9799390753       -2.7587144742        0.5516742301
 N         -5.3744468053       -2.9888989672        0.5396874455
 C         -5.8962879830       -4.2503595634        0.2699149994
 C         -5.0838062289       -5.3547537826        0.0401377077
 C         -5.6374572135       -6.5969461551       -0.2250492220
 C         -7.0088111928       -6.7554808551       -0.2739239511
 C         -7.8331984136       -5.6584433449       -0.0730046821
 C         -7.2872254176       -4.4156702433        0.1900075772
 O         -8.1613860970       -3.3694175544        0.3459403881
 C         -7.6305049248       -2.1338284904        0.6147282791
 C         -8.5191056858       -1.0878925102        0.7855876723
 C         -8.0536588845        0.1823101818        1.0906841890
 C         -6.6973050298        0.3940673563        1.2414163671
 C         -5.8014469430       -0.6480814421        1.0664899477
 C         -6.2487605978       -1.9208938247        0.7285298196
 C         -3.4138674046       -1.9406434289       -0.4241882948
 C         -2.0763864397       -1.6277257780       -0.3766612508
 C          0.5965772834       -0.3724573031        0.3537088671
 C         -0.3144866585        0.7300125854        0.1694297505
 C         -1.4815174365        0.8345961664        0.9446745975
 C         -2.3972137326        1.8283332329        0.6975373450
 C         -2.1870792340        2.7401989840       -0.3366697271
 N         -3.1895336173        3.6851677891       -0.6459229320
 C         -4.4480153945        3.2475533981       -1.0569625196
 C         -4.7318631491        1.9044330736       -1.2808615145
 C         -5.9963139551        1.5035028281       -1.6804349278
 C         -6.9969764616        2.4354489026       -1.8723525102
 C         -6.7217892799        3.7820126489       -1.6887841047
 C         -5.4598564317        4.1891707808       -1.2955154595
 O         -5.2508435268        5.5384457510       -1.1680300770
 C         -4.0013866157        5.9533435370       -0.7821982606
 C         -3.8027646211        7.3159682462       -0.6566712732
 C         -2.5757989147        7.8078606493       -0.2375624431
 C         -1.5579886386        6.9269265267        0.0720866094
 C         -1.7499691371        5.5604680893       -0.0539134237
 C         -2.9634802766        5.0517796442       -0.5029991428
 C         -0.9990946453        2.6887476951       -1.0656160228
 C         -0.0701495785        1.7059242511       -0.8058279662
 N          1.8885010549       -0.2056464333        0.2314003262
 C          4.6684076600        0.2105508611       -0.1634046868
 C          6.0235886540        0.3870637896       -0.3109676735
 H         10.6214374300       -0.5757107543       -4.7461593082
 H          8.1785443796       -0.9238414317       -4.5545046756
 H          7.0926155595       -0.8589845555       -2.3553422843
 H         11.9600049395       -0.1771757654       -2.6911272986
 H         12.3720042881        0.2990826888        1.8443982063
 H         11.4215120621        0.4089364594        4.1375471906
 H          8.9791068436        0.1589439996        4.4519312419
 H          7.5188368812       -0.2152511991        2.5169348801
 H          7.1138955085       -2.5202374117        1.0446304478
 H          4.6699105142       -2.8395370923        1.3147864408
 H         -1.1951695044       -3.4236823238        2.3544122536
 H         -3.6031625848       -3.9722930771        2.2770260647
 H         -4.0121658545       -5.2369746446        0.0619092925
 H         -4.9849086419       -7.4388764109       -0.3972669715
 H         -7.4429690832       -7.7214453088       -0.4769483214
 H         -8.9066977544       -5.7447658866       -0.1241549623
 H         -9.5729067737       -1.2906993048        0.6807957755
 H         -8.7522394106        0.9937068865        1.2176340904
 H         -6.3261452534        1.3746603540        1.4955335563
 H         -4.7447482038       -0.4747812693        1.1920545175
 H         -4.0395705857       -1.5490106725       -1.2129356431
 H         -1.6440228721       -1.0107343214       -1.1491548487
 H         -1.6462164585        0.1459351196        1.7588560442
 H         -3.2936253000        1.9061268869        1.2952308884
 H         -3.9566545089        1.1684121360       -1.1418263668
 H         -6.1942045254        0.4547594412       -1.8382143406
 H         -7.9846280525        2.1248919581       -2.1732960518
 H         -7.4738280529        4.5371929174       -1.8516660389
 H         -4.6243537409        7.9753093959       -0.8866490535
 H         -2.4284559286        8.8720817728       -0.1453048567
 H         -0.6047474364        7.2952004139        0.4185925626
 H         -0.9545779623        4.8807904302        0.2069953166
 H         -0.8260903527        3.4084406749       -1.8522756632
 H          0.8400721876        1.6481232355       -1.3826785061
 H          3.9737812559        0.9680437276       -0.4910073406
 H          6.4148488054        1.2878076773       -0.7615671051
  102
  -170.164706730000       0.132224511862279      !
 C         10.2755539349       -1.4079153684       -3.5880795568
 C          8.9084758520       -1.5834972060       -3.4848964077
 C          8.2463720465       -1.2562248777       -2.3130317320
 C          8.9469223078       -0.7462665094       -1.2256401435
 C         10.3353995246       -0.5727186046       -1.3381305118
 C         10.9888497900       -0.9019340964       -2.5111743115
 O         11.0952073015       -0.0790267513       -0.3083294250
 C         10.4516309859        0.2404171027        0.8602057748
 C         11.2220074682        0.7302131134        1.8985103875
 C         10.6288856217        1.0737647589        3.1046097855
 C          9.2640408181        0.9261527247        3.2655011220
 C          8.4853027267        0.4355356321        2.2303169019
 C          9.0652895553        0.0846233432        1.0163425136
 N          8.3132639968       -0.4083668174       -0.0394016129
 C          6.9108583371       -0.5945093622        0.1038153509
 C          6.4190253267       -1.7858994958        0.6333652309
 C          5.0636057170       -1.9684582116        0.7759708089
 C          4.1647620614       -0.9608766074        0.3894996154
 C          2.7556808337       -1.1523214397        0.5326022391
 N          2.2868176359       -2.3392479454        1.0579813627
 N          1.0485321237       -2.5620477489        1.0922896071
 C          0.1182068087       -1.7290179007        0.6937171547
 C         -1.2585673953       -2.1388113774        0.5858053977
 C         -1.8107696622       -3.0569283549        1.4881116949
 C         -3.1532632495       -3.3635530531        1.4471494552
 C         -3.9763598228       -2.7717812087        0.4905585099
 N         -5.3712960871       -3.0005061992        0.4866019169
 C         -5.8973745533       -4.2493107470        0.1701617774
 C         -5.0884933140       -5.3464507473       -0.1028721319
 C         -5.6461577984       -6.5760283191       -0.4145146064
 C         -7.0180173735       -6.7286393614       -0.4669575624
 C         -7.8389012758       -5.6378589834       -0.2220393695
 C         -7.2889684252       -4.4076155776        0.0875093288
 O         -8.1599034849       -3.3659400144        0.2866803910
 C         -7.6243746032       -2.1407450556        0.5919508197
 C         -8.5090017592       -1.0974213171        0.7959857550
 C         -8.0385556309        0.1615357664        1.1378941093
 C         -6.6812144318        0.3640978710        1.2921463949
 C         -5.7893712567       -0.6753905196        1.0844845106
 C         -6.2417207222       -1.9359090418        0.7090611588
 C         -3.4205575079       -1.9229332314       -0.4647026339
 C         -2.0828814531       -1.6106654301       -0.4211172236
 C          0.5993161563       -0.3779930425        0.3283216832
 C         -0.3151129305        0.7283005596        0.1752588364
 C         -1.4762438619        0.8135888686        0.9607530666
 C         -2.3949955535        1.8116825840        0.7425453070
 C         -2.1933138212        2.7466606499       -0.2723895890
 N         -3.1973156105        3.6993949145       -0.5507038714
 C         -4.4594142633        3.2733761158       -0.9632503471
 C         -4.7460528262        1.9366643986       -1.2193496836
 C         -6.0137785983        1.5469905038       -1.6197657598
 C         -7.0150783194        2.4842440433       -1.7800643848
 C         -6.7373546531        3.8254989687       -1.5641414769
 C         -5.4721150971        4.2215197537       -1.1702401642
 O         -5.2609470125        5.5670411342       -1.0101667182
 C         -4.0046498580        5.9718057537       -0.6354105916
 C         -3.8001771372        7.3315678465       -0.4901495150
 C         -2.5663496530        7.8130964799       -0.0789970919
 C         -1.5476708393        6.9242462766        0.2035609959
 C         -1.7453817819        5.5605985173        0.0569981632
 C         -2.9656579229        5.0628334532       -0.3858845377
 C         -1.0116936206        2.7114546721       -1.0124054025
 C         -0.0797059855        1.7240788206       -0.7811693886
 N          1.8897483987       -0.2033406360        0.2134619639
 C          4.6740578013        0.2345778069       -0.1449627983
 C          6.0300940508        0.4138347663       -0.2836637653
 H         10.7931571789       -1.6625728664       -4.4992731972
 H          8.3459928901       -1.9779785749       -4.3169468954
 H          7.1795128520       -1.3948720226       -2.2317316930
 H         12.0560367241       -0.7565944401       -2.5621306415
 H         12.2838685217        0.8357559824        1.7440084291
 H         11.2371716870        1.4547609945        3.9095023186
 H          8.7942643677        1.1914398106        4.1999439084
 H          7.4199351927        0.3206118981        2.3558037718
 H          7.1137300911       -2.5582342945        0.9299295707
 H          4.6662492238       -2.8835707804        1.1855020543
 H         -1.1724227509       -3.4946922050        2.2401182447
 H         -3.5811358193       -4.0416785484        2.1708052598
 H         -4.0164945051       -5.2321246809       -0.0800790424
 H         -4.9963144995       -7.4125573851       -0.6199790427
 H         -7.4553852797       -7.6845916948       -0.7070869748
 H         -8.9127825822       -5.7196529800       -0.2732399616
 H         -9.5636501221       -1.2929588814        0.6863096978
 H         -8.7339596340        0.9714561904        1.2894300485
 H         -6.3061599852        1.3356648683        1.5739322279
 H         -4.7319118669       -0.5099231535        1.2140578333
 H         -4.0547595627       -1.5066551407       -1.2338217942
 H         -1.6587256218       -0.9697695431       -1.1785609321
 H         -1.6346130632        0.1059195467        1.7598153610
 H         -3.2872650010        1.8747333786        1.3480562691
 H         -3.9702468590        1.1969182221       -1.1054412638
 H         -6.2136291326        0.5028326950       -1.8035433590
 H         -8.0051784454        2.1823654642       -2.0818111928
 H         -7.4900817142        4.5851190059       -1.7015485620
 H         -4.6228132705        7.9969169298       -0.6977212684
 H         -2.4146080813        8.8752269070        0.0290402891
 H         -0.5891093548        7.2838322834        0.5445602020
 H         -0.9489483623        4.8746173016        0.2978389614
 H         -0.8457797412        3.4476870502       -1.7851503213
 H          0.8257838861        1.6794440883       -1.3666474993
 H          3.9806395239        1.0073397571       -0.4377451694
 H          6.4259416024        1.3325174242       -0.6917909951
