  60
        -93.76851963
 C          7.7572661275        0.3836477633       -1.4146628549
 O          7.0384929084        0.0562727054       -0.2513481073
 C          5.6748791100        0.0919665450       -0.3012116660
 C          4.9247078690        0.4195532122       -1.4202129067
 C          3.5406767907        0.4181549855       -1.3304925736
 C          2.8862466289        0.0946423830       -0.1568717881
 C          1.4086377947        0.0968060065       -0.0752632067
 C          0.7143648868        1.3130608443       -0.0495225042
 C          1.3922858084        2.5603103348       -0.0771021561
 C          0.7081908626        3.7363192869       -0.0749782195
 C         -0.7011249170        3.7382974312       -0.0506666675
 C         -1.3883849059        2.5649319601       -0.0055714802
 C         -0.7140389862        1.3155660158        0.0140346775
 C         -1.4105773849        0.1018032379        0.0815270573
 C         -2.8882077862        0.1045304712        0.1551322496
 C         -3.5505097211        0.5026206335        1.3013764776
 C         -4.9351122551        0.5108213743        1.3814773188
 C         -5.6782160118        0.1126393193        0.2807394056
 O         -7.0414778710        0.0747966677        0.2238398101
 C         -7.7680419380        0.4696669362        1.3608282880
 C         -5.0278441323       -0.2891181353       -0.8877738775
 C         -3.6462089862       -0.2961973170       -0.9603156114
 O         -2.9328689660       -0.6606277227       -2.0609701407
 C         -3.6310803894       -1.0943311077       -3.2001931156
 C         -0.7144414666       -1.1140472379        0.0737409313
 C         -1.3873754090       -2.3596257641        0.1717365913
 C         -0.7039905593       -3.5355110885        0.1355375269
 C          0.6987173527       -3.5387807667       -0.0023272101
 C          1.3832919261       -2.3654610216       -0.0767466600
 C          0.7110173238       -1.1167868930       -0.0233205932
 C          3.6509785434       -0.2351028221        0.9766067283
 O          2.9442610335       -0.5281801998        2.1025801732
 C          3.6500026356       -0.8845504218        3.2639183468
 C          5.0322039816       -0.2334639294        0.8948886249
 H          7.5536521554        1.4097630063       -1.7380346492
 H          8.8089507305        0.2932017694       -1.1471655531
 H          7.5324907232       -0.3063345233       -2.2346003060
 H          5.3917720193        0.6749958677       -2.3573232031
 H          2.9521379579        0.6713319406       -2.2000113191
 H          2.4721604522        2.5561849643       -0.0990659369
 H          1.2380848968        4.6777965342       -0.0955522274
 H         -1.2288728411        4.6810959997       -0.0655256891
 H         -2.4682246641        2.5653102597        0.0143553415
 H         -2.9677388928        0.8104168082        2.1570628473
 H         -5.4081511598        0.8261973157        2.2971906488
 H         -8.8179120747        0.3588113255        1.0934873720
 H         -7.5454235903       -0.1678363949        2.2225871686
 H         -7.5701956833        1.5144235441        1.6220304276
 H         -5.6467404168       -0.5862690861       -1.7180258144
 H         -4.2744691118       -0.3054635638       -3.6036600848
 H         -2.8668395531       -1.3464467889       -3.9337931675
 H         -4.2358258398       -1.9822240318       -2.9883196542
 H         -2.4619931106       -2.3563593369        0.2797442839
 H         -1.2296501918       -4.4768069728        0.2099654808
 H          1.2233390312       -4.4826836840       -0.0448900425
 H          2.4582913217       -2.3660042280       -0.1815646089
 H          4.2558678295       -1.7830700196        3.1073419254
 H          2.8907619373       -1.0894803120        4.0172491104
 H          4.2937431491       -0.0694255715        3.6107203682
 H          5.6566020168       -0.4760963964        1.7389057012
