66
 energy: -114.973317795368 gnorm: 0.000053177365 xtb: 6.7.1 (edcfbbe)
O           -1.59260173447563        2.73805187510180       -3.16315521057438
S           -0.36609778890997        2.75376516811765       -2.41817406870843
O            0.85076481924010        3.14266773092064       -3.07510412057986
C           -0.58000021307941        3.76113457156103       -0.94347414450788
C            0.52667895212888        4.31650964886649       -0.32619524815442
C            0.33954960120292        4.98104815153241        0.87577590794399
C           -0.94575702947812        5.03411354508795        1.39959792824532
N           -2.00164724741161        4.50424049159725        0.80439607722733
C           -1.82477984675714        3.88359824777002       -0.34822738606843
C           -0.13358093922288        1.17947409051350       -1.58824873578346
C            1.13615842458886        0.81783237268411       -1.19214676174173
C            1.29279048352386       -0.28639931519554       -0.35526478548889
N            2.57133330080762       -0.63613606856659        0.11323749963398
C            3.31408204294221        0.27283100603686        0.87540945625175
C            2.81378304738729        1.51148600118379        1.25645887679227
C            3.57924750490731        2.38471564614748        2.01472613438975
C            4.85169075665759        2.03112703211268        2.41429542891338
C            5.35187717772099        0.78344238010816        2.07334131076035
C            4.59135450347419       -0.09334366056166        1.32156328098627
O            5.13917970121258       -1.32307575214782        1.06228983081079
C            4.40622211619302       -2.19742403050464        0.29965353532610
C            4.98293145250862       -3.42188367425724        0.01709965022217
C            4.31649453430374       -4.34309995850459       -0.77719898667063
C            3.08339543671023       -4.02019576774069       -1.30600113996105
C            2.50200328256666       -2.79332901024001       -1.02493951008473
C            3.13693205495092       -1.87752422005906       -0.19773897819820
C            0.17155987269306       -0.99371040557965        0.06944608620652
C           -1.10412782211705       -0.62216806540776       -0.34917620367281
N           -2.24062829421772       -1.28874537026313        0.13158473194839
C           -2.44461249314697       -2.65357888652849       -0.10680214325819
C           -1.54640129853708       -3.42441086500858       -0.83197319056107
C           -1.77462815729236       -4.77523788376915       -1.04439250378797
C           -2.91379715232022       -5.37518267389355       -0.54770903085441
C           -3.84147935633894       -4.61097885327989        0.14352048782194
C           -3.61807306014843       -3.26270680731564        0.35626456925440
O           -4.60089043971154       -2.56804953978947        1.01333972931896
C           -4.39876751449889       -1.22806242787759        1.22361775390347
C           -5.39919808932259       -0.54121905389114        1.88793915739667
C           -5.25300084095563        0.80735934289833        2.17506858417157
C           -4.08734289597401        1.45582093547910        1.81992331175459
C           -3.08272296802711        0.76959211452412        1.15519404481654
C           -3.23294508482081       -0.56871406736042        0.81438969300395
C           -1.25202972014110        0.47766301353986       -1.19571148196036
H            1.49535675883867        4.23030060698925       -0.79484970022164
H            1.16638898328658        5.44061307705186        1.39374172123907
H           -1.14481056082681        5.52618887469961        2.34223771223213
H           -2.70407434273927        3.47292610974485       -0.82414950708549
H            1.98404048567881        1.38926276069064       -1.53419775404944
H            1.81328254556882        1.79776579305712        0.96970012500696
H            3.16451554302098        3.34147987640201        2.29241671803154
H            5.45370380812909        2.70894599859736        2.99815269093779
H            6.33282156002166        0.46599881548201        2.38836809646602
H            5.95862772338326       -3.63269853522452        0.42441836710013
H            4.77213664753855       -5.29741441959330       -0.98800282329574
H            2.56371471643341       -4.71567292994634       -1.94646850908697
H            1.55214059520612       -2.53918283570278       -1.46701246367108
H            0.29164773453702       -1.82130156447786        0.75311235067573
H           -0.66591963952044       -2.96440861043705       -1.24935373786243
H           -1.05388879757424       -5.34921833075678       -1.60569029716205
H           -3.09523740208062       -6.42644352981841       -0.70491544483774
H           -4.75459722430442       -5.04153364867016        0.52195201140402
H           -6.28510805720154       -1.08487076483605        2.17450640444198
H           -6.04307481980426        1.33561587226889        2.68435990377085
H           -3.94102477015661        2.49951760240248        2.05047444609021
H           -2.17025609873896        1.28961273661807        0.90747693779664
H           -2.22316089312935        0.78920099619469       -1.54525414834355
