66
 energy: -114.972031246656 gnorm: 0.000047325291 xtb: 6.7.1 (edcfbbe)
O           -2.05795663990494        1.95849764116924       -3.70808560961662
S           -0.71760662573782        2.10734746379096       -3.21154244006606
O            0.37434328462095        2.13548334038314       -4.14324447832454
C           -0.64293529350232        3.57703859490059       -2.17780038753134
C           -1.80315219048664        4.07225297322112       -1.61054777100808
C           -1.70043494046456        5.15005751182248       -0.74513673344578
C           -0.43449447568597        5.65827493033096       -0.48392610375464
N            0.67248240948706        5.18355864933436       -1.03075995807897
C            0.57162072199856        4.16661369987998       -1.86766675574153
C           -0.40245098137986        0.85923239401337       -1.95963912060721
C            0.90038733290911        0.67930190503778       -1.54821960960238
C            1.16168968111136       -0.15444081727382       -0.46117132176435
N            2.47290178792690       -0.29895801750144        0.01360075410962
C            3.21264647905034        0.83403414279799        0.38289463989433
C            2.66127996791449        2.10883864325073        0.41345234085728
C            3.42349211071378        3.20918449448764        0.77487699818468
C            4.74640133616739        3.04954208401611        1.13474549885168
C            5.29992532064356        1.77839738972404        1.15636528660778
C            4.54282511095057        0.67903079133359        0.79332457059446
O            5.15058764909367       -0.54732962738156        0.87667713073694
C            4.42388781907029       -1.64400852662020        0.48930757331289
C            5.06685333601725       -2.86769749555222        0.53715086675256
C            4.41312516579607       -4.01907525320827        0.12617296562135
C            3.12189809487660       -3.93273997994651       -0.35340276741735
C            2.47201264398940       -2.70874059836310       -0.40068664905671
C            3.09931028755273       -1.55204428101823        0.04313811119834
C            0.10527086643792       -0.81678971945603        0.15955417034115
C           -1.20247588679027       -0.64729478311979       -0.28786442197090
N           -2.25575820350470       -1.32565278419538        0.34739500581910
C           -3.06406266490143       -2.21694119901558       -0.37160363658640
C           -2.84266288657138       -2.50720309908574       -1.71140300824456
C           -3.65744691252955       -3.40271601506633       -2.38746840520176
C           -4.69804691801895       -4.03074102040304       -1.73368541763356
C           -4.91265070918875       -3.77504562085583       -0.38794101384212
C           -4.10136691381967       -2.88470225756831        0.29131877310262
O           -4.35549458090676       -2.71118647553261        1.62912709551903
C           -3.57403661625309       -1.81621421810618        2.31255472253980
C           -3.86840359245503       -1.62215467431412        3.64984667090034
C           -3.14477065647651       -0.70881512870656        4.40151672180264
C           -2.14061501185729        0.02209455051440        3.80013079521518
C           -1.84018987149909       -0.17002395748000        2.45986733201894
C           -2.53157297728830       -1.10643407789326        1.70207705836009
C           -1.46044323865172        0.22117487107558       -1.34883763263241
H           -2.74984348178468        3.61997854198256       -1.86436353252339
H           -2.57477607172178        5.58056204634860       -0.28327708464402
H           -0.29561344934552        6.48945728197846        0.19450221469226
H            1.48822016911503        3.81220485975552       -2.31736991941472
H            1.69815701299960        1.17587355840599       -2.07620345169565
H            1.62284425892092        2.25345820267417        0.15765398374856
H            2.96641686132700        4.18633387641238        0.76535589398374
H            5.34802674130126        3.90093728407120        1.41004787690731
H            6.32268174495896        1.61491363328529        1.45594332768378
H            6.08400557121420       -2.89495458849469        0.89355265562623
H            4.92106424367286       -4.96926709769296        0.17042848643192
H            2.60720217140442       -4.81532250307686       -0.70014281547132
H            1.47160880358576       -2.65580660545467       -0.80030100179311
H            0.30021103682918       -1.46397271294028        1.00198260261713
H           -2.02587983118378       -2.03597759861546       -2.23489595927307
H           -3.46580029588830       -3.60344864996926       -3.42989517655999
H           -5.33736291693527       -4.72428705944156       -2.25625586506488
H           -5.70411528791657       -4.26234617045685        0.15848627220986
H           -4.67305200099285       -2.19456059738176        4.08255375422468
H           -3.37854679221353       -0.56782331608403        5.44473571784422
H           -1.58144889958694        0.75173533880924        4.36516931780209
H           -1.06410593344700        0.42222644007392        2.00030047730816
H           -2.46380827270054        0.39708339241978       -1.70247161482995
