66
 energy: -114.890613614206 gnorm: 0.000070879469 xtb: 6.7.1 (edcfbbe)
O            1.11005795326668       -2.90242279371171       -3.31740386051011
S           -0.11603143020602       -2.65824038005060       -2.60035760788207
O           -1.36900815118618       -2.76784554140550       -3.30249519799117
C           -0.15736069950464       -3.66150562649127       -1.13830331347785
C            1.03464059110014       -4.04574782195212       -0.51227296585754
C            0.96464143771860       -4.60011368303657        0.74860404159728
C           -0.28461987375278       -4.73306541672099        1.35007100574342
N           -1.41799999314417       -4.36646215717127        0.74967109303986
C           -1.35824211941811       -3.84989909338818       -0.45549269198182
C           -0.03150155857072       -1.09689020400536       -1.78283639158872
C            1.20649521362091       -0.64598647135295       -1.29654497421886
C            1.24183456896274        0.36633733121702       -0.36836143513796
N            2.48818171015642        0.81899822764086        0.14010551230901
C            2.98098991784251        2.05793751301894       -0.22364135867919
C            2.31134367455692        2.88887736358582       -1.12018757181429
C            2.82906614456396        4.12461797033523       -1.45352544122997
C            4.03324865524978        4.55451615889599       -0.90644154437061
C            4.72618811523579        3.73479418577679       -0.03483953361987
C            4.21486059575510        2.49214390842243        0.30765547019923
O            4.94781602867880        1.71631661829182        1.15547339162973
C            4.46033307683336        0.48590723140067        1.48415338279320
C            5.22247281795822       -0.30086946327974        2.33390979891368
C            4.76678440138358       -1.54747403105362        2.72109356636509
C            3.53597250585757       -2.00713381013959        2.26440739267084
C            2.77099658374093       -1.23601591832910        1.41271730721837
C            3.22099531189888        0.01615376158061        0.99502049468896
C            0.06169492670504        0.95105723176519        0.12452891986301
C           -1.17012592657750        0.47638509544289       -0.36673213255209
N           -2.37449369957410        1.01079324272221        0.15743565775336
C           -3.21714673861232        0.20126909952533        0.90498571835389
C           -2.89122974962004       -1.11369816665321        1.23114656158452
C           -3.76646302220559       -1.89977629457871        1.95482465217211
C           -4.98109027908729       -1.38350875601804        2.38319083532887
C           -5.30887390080416       -0.06853703432225        2.10141551232113
C           -4.43686521861431        0.72534427249765        1.37344507213230
O           -4.80589434214429        2.02048479912822        1.14254193705961
C           -3.96361234223517        2.80395350377943        0.40926493921427
C           -4.35487279508281        4.11171982672466        0.16801763340142
C           -3.55361483134675        4.94825748297062       -0.58920423221127
C           -2.36541621597124        4.47047413958750       -1.12106311577205
C           -1.96747662457890        3.16765809083956       -0.88714844029498
C           -2.74659684593806        2.31760295608282       -0.10510120120523
C           -1.22039882792717       -0.52672217483512       -1.30437778901376
H            1.96797448045922       -3.91313838609568       -1.03673163524764
H            1.85516536053715       -4.92803079851768        1.26309811488590
H           -0.39474050602125       -5.14978506486545        2.34080516947256
H           -2.29323507548550       -3.57473416036831       -0.92333662541991
H            2.10788750866866       -1.10209725182629       -1.67237061621074
H            1.38841516215089        2.54680260061414       -1.55955805000211
H            2.29580275836232        4.75465194633188       -2.14768759984070
H            4.43463690351914        5.52048317647758       -1.16744376822654
H            5.67003435499488        4.03463051019399        0.39129290642227
H            6.16664463911853        0.08742320457505        2.68062095580125
H            5.36417570071517       -2.15577173852926        3.38095180739651
H            3.16865513099678       -2.97156445722196        2.57675562611552
H            1.81771814155989       -1.59923521197852        1.06188243737118
H            0.09910327245097        1.72260527358054        0.87529783968664
H           -1.94797166147275       -1.52367647745585        0.90908219376717
H           -3.49015801638186       -2.91919487043360        2.17218629397587
H           -5.66896229448055       -1.99794281692124        2.94160502783370
H           -6.23767800268051        0.36585913611051        2.43483058478734
H           -5.29266494215882        4.44897233248616        0.57903204734154
H           -3.86272433309471        5.96504783098015       -0.77129673075015
H           -1.74562775851132        5.11311490995791       -1.72631194237892
H           -1.05232207464846        2.79347472826972       -1.31544373828793
H           -2.15753887860806       -0.89532509423736       -1.68905497328117
