  80
        -99.63549687
 C          3.1781911732        4.5601105804        1.2692736090
 C          3.5838799896        3.7732432330        0.0151945661
 C          5.1078365289        3.6278698848        0.0175312557
 C          3.1812016090        4.5538641342       -1.2438627937
 C          2.8707191133        2.4299603256        0.0159225548
 C          3.5300568448        1.2274664604        0.0132424124
 C          2.8280160746        0.0056158593        0.0096906370
 C          3.5347300689       -1.2135756741        0.0025733870
 C          2.8799970297       -2.4185768134       -0.0067022729
 C          3.5978376267       -3.7592303948       -0.0240812701
 C          3.2047877889       -4.5207697854       -1.2977938649
 C          3.1883567392       -4.5682438938        1.2145956353
 C          5.1211459090       -3.6084460920       -0.0107502371
 C          1.4770937232       -2.4050138846       -0.0046336649
 C          0.7322106635       -1.2418343828        0.0052708790
 C         -0.7267728989       -1.2446681147        0.0088647754
 C         -1.4671235510       -2.4107514794        0.0126078670
 C         -2.8699681272       -2.4297056995        0.0126770790
 C         -3.5827711724       -3.7731220565        0.0164039169
 C         -3.1771654121       -4.5535919120        1.2743669540
 C         -5.1066583806       -3.6279827139        0.0175663712
 C         -3.1797454988       -4.5600107032       -1.2385081130
 C         -3.5294209225       -1.2273224196        0.0082169122
 C         -2.8274309717       -0.0054315768        0.0057567177
 C         -3.5343500940        1.2134970474       -0.0011081039
 C         -2.8799988870        2.4187171828       -0.0064845264
 C         -3.5994590203        3.7585546047       -0.0236615304
 C         -3.1942973513        4.5279783333       -1.2887972461
 C         -5.1226086507        3.6057515811       -0.0275073527
 C         -3.2042542823        4.5607641167        1.2239527378
 C         -1.4770316942        2.4056875121       -0.0000136077
 C         -0.7318086959        1.2426028958        0.0073909558
 C          0.7272741720        1.2453418992        0.0120437309
 C          1.4677988521        2.4113225009        0.0156181356
 C          1.4128044828        0.0030685134        0.0098009185
 C         -1.4122746621       -0.0024098322        0.0076883150
 H          3.4444633755        4.0019946893        2.1643816521
 H          3.6927585137        5.5183446575        1.2933062440
 H          2.1086623755        4.7488577226        1.2932851350
 H          5.4504604439        3.0987312780       -0.8684849278
 H          5.4475574771        3.0976398156        0.9040064368
 H          5.5668302906        4.6144598004        0.0188006119
 H          2.1121904884        4.7458939732       -1.2690285365
 H          3.6990623650        5.5102295796       -1.2737788886
 H          3.4456585930        3.9892638431       -2.1356038777
 H          4.6066933124        1.1765608794        0.0123524835
 H          4.6111365266       -1.1582554404        0.0027367579
 H          3.4811114832       -3.9455027387       -2.1789631257
 H          2.1350105074       -4.7067526481       -1.3365343321
 H          3.7181616301       -5.4792288141       -1.3352357147
 H          3.7153938495       -5.5198718261        1.2313639129
 H          3.4369228471       -4.0192221963        2.1204489799
 H          2.1212880629       -4.7720740991        1.2236297391
 H          5.4670540456       -3.0644718395       -0.8864056337
 H          5.4535039177       -3.0906449603        0.8858088758
 H          5.5837811802       -4.5932604226       -0.0221964193
 H          0.9685434189       -3.3534825989       -0.0117506174
 H         -0.9549732644       -3.3572715338        0.0154911450
 H         -3.6934175702       -5.5107103268        1.3048289134
 H         -2.1082040352       -4.7440585038        1.2974112746
 H         -3.4405310670       -3.9901313572        2.1666185457
 H         -5.5656370055       -4.6145215673        0.0241579972
 H         -5.4467408936       -3.0929466251        0.9007928648
 H         -5.4488032919       -3.1039153040       -0.8714596715
 H         -3.6954830189       -5.5176745198       -1.2624246498
 H         -2.1104019830       -4.7499316174       -1.2637947413
 H         -3.4463959317       -4.0012163598       -2.1331593464
 H         -4.6060386098       -1.1762272313        0.0059049625
 H         -4.6107596663        1.1578388752       -0.0036846317
 H         -3.4547579009        3.9542825874       -2.1757492834
 H         -3.7138972413        5.4829952124       -1.3295052326
 H         -2.1256169449        4.7217010690       -1.3124127566
 H         -5.5864459037        4.5899254348       -0.0427572681
 H         -5.4577285004        3.0624286991       -0.9078225513
 H         -5.4645529872        3.0862318923        0.8645317463
 H         -3.7265518508        5.5150820670        1.2364062902
 H         -2.1364152132        4.7584511378        1.2495254209
 H         -3.4692721837        4.0097096939        2.1238221554
 H         -0.9687349290        3.3542422359       -0.0028232045
 H          0.9556048410        3.3578177268        0.0176889064
