85
 energy: -134.693745002063 gnorm: 0.000074875964 xtb: 6.7.1 (edcfbbe)
C            6.86095582805784        1.41772954290775        2.53011524814591
C            6.29874221571521        1.40674920373369        1.10852150195632
N            5.35257907730324        0.33885530094134        0.92133285246778
C            5.65185158502134       -0.95999054061943        0.54328269412162
C            6.87723993196939       -1.50896710382445        0.21131218825467
C            6.92242995785297       -2.85747854872339       -0.12319003182161
C            5.77558946486891       -3.64125761386584       -0.12013149754527
C            4.53999334378038       -3.10709353956179        0.20586487836013
C            4.46452626185396       -1.75505261713053        0.53375383924816
C            3.43063710897167       -0.86839668155551        0.93033101718927
C            4.02098662234864        0.39410950072704        1.18468442271192
C            3.00447092737786        1.26738922274856        1.63686148711467
C            2.94475562332386        2.60408860445544        2.03256512326356
C            1.71957393541447        3.14035409367455        2.37518186615923
C            0.55623950552296        2.37748787094892        2.31833236943172
C            0.58887034332215        1.04086111276232        1.94377652297455
C            1.81055539834338        0.48043404943970        1.62795807951955
N            2.09820611392738       -0.81961286454940        1.20925306146823
C            1.16812833108898       -1.84142411694523        1.02464207928937
C            0.20335362069939       -2.12074904116066        2.00915272251590
C           -0.75896119868690       -3.07092272505131        1.77932785801809
C           -0.77696219116819       -3.77612495358155        0.57069529536617
S           -2.29427502782868       -4.51798827965973        0.04727362313597
O           -2.05669402088072       -5.40002754602785       -1.08411916358247
O           -3.01351744824686       -5.08706018911267        1.17540341139098
C           -3.06374619944525       -3.01300171403576       -0.47411184306314
C           -3.76837357937760       -2.25524306648659        0.46729253372859
C           -3.95851955038065       -0.90912298070642        0.27034767011004
C           -3.41033880137637       -0.28622812541540       -0.86060306113846
N           -3.44452912356899        1.10242783401763       -1.00735517961219
C           -4.54847357600219        1.94255474497354       -0.90839964210654
C           -5.87086867490575        1.61346372733427       -0.67776342116724
C           -6.80398713603810        2.63981941633418       -0.63801234076057
C           -6.42622751458923        3.96711710184669       -0.82763780531909
C           -5.11235641983671        4.31008210271090       -1.08034100216572
C           -4.15357282620918        3.29871627560021       -1.13554436237412
C           -2.75914938965852        3.23714357232655       -1.38061159841738
C           -2.36442028761931        1.88344829274752       -1.29429282922684
C           -0.95683931887567        1.82908207318167       -1.46359265204473
C            0.00647461426179        0.82372490622296       -1.43563569209403
C            1.33076635198473        1.17444110661329       -1.62981635618469
C            1.70332549629617        2.49509036621818       -1.84941744495650
C            0.76458345552817        3.51707724090589       -1.87215836803696
C           -0.56497072476774        3.18649491692524       -1.67520375894758
N           -1.67354655494128        4.01471766903284       -1.63785880758785
C           -1.66393587616861        5.45005178021037       -1.74289002901708
C           -1.46059584479646        6.11258472037287       -0.38017035204006
C           -2.74598956504770       -1.05868948866269       -1.82893010377385
C           -2.57741286833632       -2.40545609114133       -1.63785459393846
C            0.21095865883432       -3.53479041838906       -0.39144094670427
C            1.17962574873446       -2.59044712687269       -0.16369394057868
H            7.56777075613390        2.23516101865189        2.64210417494475
H            7.37086936664911        0.48111451023596        2.74275911036892
H            6.05766432054662        1.54552695084192        3.25187176460770
H            5.78772685933567        2.34973989871766        0.90008795747361
H            7.10843995891188        1.28362215740584        0.38506269456677
H            7.78154384712335       -0.92072301873165        0.21655267776258
H            7.87011121018040       -3.30438210510168       -0.38370403415326
H            5.84875154842990       -4.68833632420397       -0.37481498847642
H            3.65494200320470       -3.72483258701577        0.21393468499068
H            3.83775315262825        3.20869367982989        2.06903847242436
H            1.65863249215653        4.17317576110795        2.68479912140133
H           -0.39120755830694        2.83057448940364        2.56782870585235
H           -0.32023768606257        0.46258064724391        1.88870072588836
H            0.23650995636025       -1.59138903706926        2.94924155098099
H           -1.51899139993457       -3.29486319567428        2.51179139800718
H           -4.13374351796681       -2.75501372487371        1.35111378939574
H           -4.47949087042408       -0.31629668843673        1.00704005273569
H           -6.17163266687356        0.58584991201601       -0.54175510583903
H           -7.84185410837252        2.40297874228119       -0.45858485974585
H           -7.17898975590709        4.74013970930625       -0.78218763129641
H           -4.83580197116843        5.34207178302097       -1.23217192893395
H           -0.27636186947694       -0.20334860183633       -1.26000991971325
H            2.09052212815595        0.40751584410912       -1.61308907438699
H            2.74545592801308        2.73340794071674       -2.00002344599099
H            1.07511402679208        4.53775997691140       -2.03179083466749
H           -0.86311460763246        5.74229086182566       -2.42659197898998
H           -2.61775420271020        5.76335254900688       -2.17408027764927
H           -2.25966314911138        5.82717676925607        0.29994211728729
H           -1.46319895191285        7.19342007523128       -0.49090432021251
H           -0.51149582182506        5.80429967355150        0.05123036248493
H           -2.37008829467338       -0.57561039675067       -2.71839667146166
H           -2.06152305294306       -3.01976172937636       -2.35921649266908
H            0.17726414031263       -4.10103457829102       -1.30934391022947
H            1.93052922117733       -2.38517481364367       -0.91154307377359
