85
 energy: -134.776336811187 gnorm: 0.000062304953 xtb: 6.7.1 (edcfbbe)
C            6.91517747118155        1.39518519851782        2.56878769070573
C            6.45526850602815        1.26191366388599        1.11723674052127
N            5.50379382109324        0.19382832135900        0.95458751254609
C            5.78332628018319       -1.12080171104264        0.67179661924046
C            7.00769429457042       -1.72051434625440        0.40040896389859
C            7.03253833763263       -3.07703277314671        0.15377901950730
C            5.86449608688038       -3.84238172626634        0.17983424531840
C            4.64076601477103       -3.26816125704433        0.44289165027901
C            4.58013977170899       -1.89534909399078        0.68363657269817
C            3.55831220851507       -0.96288277796958        0.99150175876658
C            4.15470201773924        0.28099814707235        1.17727603135897
C            3.14385773708452        1.20916817692005        1.54613094831929
C            3.11009155977283        2.57215138996059        1.82887762744067
C            1.89655618602816        3.16318299423472        2.10761818086111
C            0.71619350472665        2.42259274641341        2.08859019499838
C            0.72083363943159        1.06799381485650        1.82070542173382
C            1.93792589610708        0.44953393210124        1.57508191565515
N            2.20133610910063       -0.87414002230786        1.25076063684866
C            1.25215175224733       -1.87070189553540        1.06560677047263
C            0.22065082710207       -2.04678088100198        1.99307010878516
C           -0.79228650672842       -2.94747750648816        1.73462804825073
C           -0.76442033473444       -3.69605947117220        0.57031776962899
S           -2.29358015218136       -4.46538333033921        0.04058509062361
O           -2.05103638743815       -5.34094418205161       -1.08536233787571
O           -3.01467293054036       -5.02074684840728        1.16529073723035
C           -3.05118187904779       -2.92944400387588       -0.48623628792743
C           -3.86042711781713       -2.22458188662479        0.38610247262835
C           -4.10267682070235       -0.88167013230857        0.16402001892256
C           -3.50283378244169       -0.24088236279194       -0.92161950128501
N           -3.56587567553951        1.13954695112634       -1.07457778672465
C           -4.66884619254775        1.97018480554919       -0.98921230005238
C           -6.00125439845745        1.63739331075960       -0.79274747484161
C           -6.93295316573401        2.65714689593618       -0.77013040543762
C           -6.55652303957322        3.98782129272715       -0.94977038806868
C           -5.24049909857450        4.33202055350173       -1.17620258338568
C           -4.27817766552878        3.32566010719308       -1.20683806900507
C           -2.87331286617503        3.27468983821249       -1.41986093197283
C           -2.47059161056525        1.94486005016556       -1.33989805683772
C           -1.05907891038346        1.90382318892123       -1.46202456215357
C           -0.07832524531849        0.91291223303259       -1.41217105689041
C            1.24031933208438        1.27717411161370       -1.56471712469205
C            1.60503095225908        2.61008852598922       -1.76061230443389
C            0.66126513734793        3.61398206606994       -1.80227298030326
C           -0.67665504568595        3.26933667248221       -1.64982727113609
N           -1.78572514777025        4.07974416049844       -1.63905838612974
C           -1.79864509509450        5.51650314899119       -1.73039098970319
C           -1.65504849795889        6.17616982589054       -0.35903303291413
C           -2.75345013282792       -0.98449391849251       -1.83861915926866
C           -2.52194055482354       -2.32463185108567       -1.61452993672374
C            0.29077031245662       -3.58842081386815       -0.31840053975118
C            1.30479285876896       -2.68480730214998       -0.06907894499829
H            7.62820830023499        2.21007972702587        2.66098178540932
H            7.38930921504316        0.47397788950648        2.89983350439682
H            6.06429842389973        1.59718325381408        3.21539356396406
H            5.98100528633000        2.19016931939409        0.78749559022177
H            7.31191664888984        1.06529459138661        0.46779575874934
H            7.92244869367582       -1.14720107669096        0.39093717683085
H            7.97501649947647       -3.56181305342520       -0.05606043319659
H            5.92709682043922       -4.90492385923119       -0.00616189225517
H            3.74526436631791       -3.87139149838759        0.47430095695435
H            4.01699420136945        3.15772825604282        1.82423463952987
H            1.85519080086564        4.21910249251960        2.33145955507198
H           -0.22369201144857        2.91703839543374        2.28476037376522
H           -0.20529176278443        0.51569006697594        1.78430525225477
H            0.21649454793648       -1.46783135387273        2.90302269457027
H           -1.61559908086276       -3.07890785164634        2.41896770428542
H           -4.26072619734040       -2.73245961153438        1.24975600066800
H           -4.69742110928925       -0.31352570376862        0.86217865936800
H           -6.30614917899512        0.60896129302113       -0.67145568550099
H           -7.97468129134597        2.41902032466423       -0.61253690700389
H           -7.31327317427845        4.75809115100130       -0.91977221913762
H           -4.96327197044683        5.36429906481847       -1.32790026321718
H           -0.34816286520355       -0.11955125433542       -1.24497933215186
H            2.01144333947183        0.52205973222762       -1.52927309567259
H            2.65016306796899        2.85789924901770       -1.87420569360987
H            0.96183637930171        4.64158313955977       -1.94004358266626
H           -0.98083002016178        5.82971885808479       -2.38479838334334
H           -2.74172428255402        5.81666033935735       -2.19419636705740
H           -2.46723947527727        5.86604905810153        0.29448202207593
H           -1.68069949387732        7.25777467048172       -0.46188670023639
H           -0.71218728179214        5.88846886402423        0.09988628576647
H           -2.33466385396208       -0.49025512283822       -2.70142821285350
H           -1.91916732941703       -2.91209324164064       -2.28890708942007
H            0.28672870357740       -4.19772108329129       -1.20884624592818
H            2.11473230298122       -2.56570079025914       -0.77171544334200
