  62
  -87.7049264100000       0.147525082038307      !
 C          1.4346546983       -0.0589903483       -4.7794087563
 C          0.6915680973       -0.0400731195       -3.4787867583
 C          1.3879929657       -0.0281705756       -2.2868546454
 C          0.6984874927        0.0113183383       -1.0808481264
 P          1.2532423926       -0.1924330132        0.6125633158
 C          1.2852092201       -1.9735696866        0.9211114515
 C          0.1998367918       -2.5862417816        1.5531886736
 C          0.1101072915       -3.9614707795        1.6052997119
 C          1.0918777673       -4.7466037835        1.0171087161
 C          2.1645052283       -4.1425626535        0.3690968896
 C          2.2599697334       -2.7703860853        0.3069149988
 C          2.9764081796        0.3512913293        0.6674247552
 C          3.3187322174        1.5254115514       -0.0105631125
 C          4.5880477866        2.0499328748        0.1139329086
 C          5.5151000457        1.4417635030        0.9499290073
 C          5.1597717690        0.3099054705        1.6721606158
 C          3.8928306977       -0.2221328111        1.5529081775
 C         -0.7203656575       -0.0462239129       -1.0752405342
 P         -1.2592992860        0.1766823916        0.6214432375
 C         -2.9948907844       -0.3277711975        0.6907927666
 C         -3.8934179838        0.2810592284        1.5707332027
 C         -5.1732239544       -0.2165389641        1.7010542788
 C         -5.5597895570       -1.3485574066        0.9953987690
 C         -4.6513739582       -1.9916319801        0.1652093606
 C         -3.3692434936       -1.5017855989        0.0300221370
 C         -1.2569369920        1.9628915892        0.9074780430
 C         -0.1646171315        2.5628518089        1.5390807714
 C         -0.0448986770        3.9366809605        1.5680895919
 C         -1.0040113124        4.7325180427        0.9580339802
 C         -2.0854848414        4.1408319845        0.3133966240
 C         -2.2101431434        2.7700769939        0.2739897078
 C         -1.4179678779       -0.0223872255       -2.2766478107
 C         -0.7297655252       -0.0260821736       -3.4737586732
 C         -1.4816407546       -0.0231676041       -4.7693559711
 H          2.5073511333       -0.0949351294       -4.6067133614
 H          1.2092906060        0.8317250663       -5.3661431701
 H          1.1505795921       -0.9267577013       -5.3740253009
 H          2.4704869296       -0.0301370794       -2.2903722949
 H         -0.5557700685       -1.9687002598        2.0267052797
 H         -0.7257631985       -4.4275169151        2.1072792035
 H          1.0214224296       -5.8231624404        1.0573900137
 H          2.9248687362       -4.7541126701       -0.0957519437
 H          3.0854487512       -2.2978072415       -0.2085576676
 H          2.5810650006        2.0022340551       -0.6429359827
 H          4.8583643309        2.9427340247       -0.4317046256
 H          6.5055465302        1.8592821703        1.0532003396
 H          5.8760934814       -0.1511455196        2.3370452641
 H          3.6066955828       -1.0979053188        2.1199771387
 H         -3.5833345446        1.1571103223        2.1245986752
 H         -5.8751123153        0.2716838881        2.3619272830
 H         -6.5602512355       -1.7391121210        1.1074292827
 H         -4.9464365491       -2.8845591545       -0.3672228676
 H         -2.6461630759       -2.0059036633       -0.5979139782
 H          0.5726736360        1.9383651508        2.0318385976
 H          0.7978915408        4.3924701774        2.0679837206
 H         -0.9095144248        5.8077809239        0.9789471599
 H         -2.8291239790        4.7606192177       -0.1672607195
 H         -3.0415154348        2.3066893880       -0.2402948008
 H         -2.5004530389       -0.0191820679       -2.2733287428
 H         -1.2550426914       -0.9179658526       -5.3498172263
 H         -1.2060396527        0.8409789376       -5.3737647390
 H         -2.5536177166        0.0085493987       -4.5899929456
  62
  -87.7049205300000       0.146610003433474      !
 C          0.5136411071       -1.1503656822       -4.8272954027
 C          0.1902302155       -0.5374920696       -3.4993368057
 C          0.6168475181       -1.1471063112       -2.3362626559
 C          0.2953452502       -0.5919069967       -1.1039453381
 P          0.8500869610       -0.9808476873        0.5572203643
 C          1.3013385767       -2.7322653372        0.5543839152
 C          0.4488269356       -3.6298011226       -0.0960476279
 C          0.6839006661       -4.9863743641       -0.0176579336
 C          1.7379238122       -5.4682829857        0.7471597242
 C          2.5489908783       -4.5833203872        1.4455453087
 C          2.3222201533       -3.2246319327        1.3713255756
 C          2.3953263037       -0.0725010853        0.7953369802
 C          3.5499585815       -0.4678579132        0.1078855342
 C          4.6673437708        0.3366682412        0.1216887124
 C          4.6517681380        1.5543113050        0.7942282693
 C          3.5022551919        1.9618758691        1.4566045509
 C          2.3799221933        1.1603912947        1.4530939160
 C         -0.3968981241        0.6462073158       -1.0445644955
 P         -0.7758184999        0.9681920788        0.6794413247
 C         -2.2842909274        0.0381609820        1.0407395451
 C         -3.5039295971        0.4455100323        0.4851530697
 C         -4.6098765229       -0.3690853093        0.5835044638
 C         -4.5203533535       -1.6080353211        1.2098733120
 C         -3.3081241183       -2.0268644052        1.7402772202
 C         -2.1964019039       -1.2154738232        1.6518642407
 C         -1.2367617634        2.7130722920        0.7945348853
 C         -2.1718781418        3.1583948177        1.7325087877
 C         -2.4002634696        4.5097280401        1.8884976357
 C         -1.6720581177        5.4331698418        1.1497069220
 C         -0.6993340012        4.9966300350        0.2600401911
 C         -0.4634456047        3.6475079448        0.0986980813
 C         -0.8533273990        1.2396040063       -2.2155812300
 C         -0.5633965870        0.6661193735       -3.4374825870
 C         -1.0365167921        1.3172709910       -4.7009607448
 H          1.0765919320       -0.4534610195       -5.4479355609
 H         -0.3982222386       -1.4096975717       -5.3658264045
 H          1.1053150172       -2.0534380029       -4.6983754446
 H          1.1840715938       -2.0678868566       -2.3829227437
 H         -0.3819982124       -3.2433088217       -0.6719723093
 H          0.0397696431       -5.6764755170       -0.5437436917
 H          1.9150227313       -6.5313603283        0.8144969493
 H          3.3565047691       -4.9607643972        2.0564023870
 H          2.9456204039       -2.5310120471        1.9196083328
 H          3.5545607571       -1.4082757433       -0.4269282494
 H          5.5599169244        0.0227085284       -0.4007615310
 H          5.5299870027        2.1822272783        0.7961026893
 H          3.4859475219        2.9083693756        1.9779880900
 H          1.4854187101        1.4668815499        1.9845110304
 H         -3.5674718652        1.4025428042       -0.0152197238
 H         -5.5517809909       -0.0466300323        0.1628531635
 H         -5.3903866760       -2.2438143782        1.2780669595
 H         -3.2342594295       -2.9897892222        2.2253464646
 H         -1.2519852376       -1.5305557149        2.0821869372
 H         -2.7299183138        2.4346503975        2.3114521852
 H         -3.1431613774        4.8512139429        2.5951991005
 H         -1.8486402467        6.4902440301        1.2818558304
 H         -0.1179635504        5.7162305915       -0.2985426437
 H          0.3058907943        3.2956120849       -0.5763391860
 H         -1.4205338560        2.1604581537       -2.1694168264
 H         -1.6240255940        2.2042345126       -4.4775462827
 H         -1.6522661999        0.6311652538       -5.2818183930
 H         -0.1913621862        1.6108588518       -5.3239130611
  62
  -87.7049046300000       0.144163882502516      !
 C          1.4684699431        0.0044034730       -4.7672269791
 C          0.7213517463        0.0075851171       -3.4687934555
 C          1.4142793473        0.0153372532       -2.2746166526
 C          0.7212847668        0.0452370387       -1.0705759971
 P          1.2684557666       -0.1620072802        0.6254471623
 C          1.2514500857       -1.9448268413        0.9319994139
 C          0.1671028815       -2.5247329183        1.5955826440
 C          0.0297885209       -3.8965647522        1.6396077899
 C          0.9624976235       -4.7104072604        1.0126168319
 C          2.0361039145       -4.1388376819        0.3371172628
 C          2.1784335833       -2.7703926274        0.2832587454
 C          3.0094144544        0.3262034925        0.6736984854
 C          3.3863315774        1.4937192789        0.0029988206
 C          4.6754023390        1.9704005481        0.1173862364
 C          5.5888562705        1.3209439160        0.9369075356
 C          5.2006277489        0.1959724239        1.6528189184
 C          3.9139231157       -0.2886869041        1.5431227381
 C         -0.6972423845       -0.0180403132       -1.0701943967
 P         -1.2448819171        0.2065177961        0.6230698993
 C         -2.9606982412       -0.3546625139        0.7074832694
 C         -3.8612399205        0.2104344795        1.6148905931
 C         -5.1201030788       -0.3328101462        1.7640007317
 C         -5.4825433777       -1.4667635486        1.0485538908
 C         -4.5705347316       -2.0655593879        0.1894610392
 C         -3.3086371981       -1.5307901845        0.0361734413
 C         -1.2924651554        1.9945329749        0.8850933711
 C         -0.1922063338        2.6391575740        1.4569455532
 C         -0.1157442692        4.0162095512        1.4584903134
 C         -1.1258630726        4.7710560131        0.8790254924
 C         -2.2144988080        4.1346221500        0.2913500298
 C         -2.2972194178        2.7603902807        0.2797984559
 C         -1.3917334712        0.0068050846       -2.2734881860
 C         -0.6999871185        0.0125968022       -3.4683514522
 C         -1.4480429415        0.0167727525       -4.7660723242
 H          2.5409446636       -0.0281600874       -4.5917480372
 H          1.2407851974        0.9002129685       -5.3456155633
 H          1.1900854164       -0.8584738386       -5.3717270941
 H          2.4967438793        0.0178959459       -2.2756089939
 H         -0.5489129774       -1.8861347882        2.1013781591
 H         -0.8067713255       -4.3366808850        2.1634508339
 H          0.8535800807       -5.7840577216        1.0441015609
 H          2.7584705622       -4.7730011771       -0.1570123169
 H          3.0029665928       -2.3221669035       -0.2550977466
 H          2.6594081132        2.0029598185       -0.6164218684
 H          4.9722207151        2.8575063441       -0.4238119290
 H          6.5949375401        1.7012128058        1.0327759175
 H          5.9069176276       -0.2968725764        2.3055202732
 H          3.6028262016       -1.1596773135        2.1043188070
 H         -3.5686772140        1.0881747882        2.1758248494
 H         -5.8237311376        0.1199644424        2.4478793483
 H         -6.4662436281       -1.8935336740        1.1754631857
 H         -4.8463262471       -2.9596389157       -0.3513546714
 H         -2.5821016926       -2.0009107002       -0.6136789397
 H          0.5862075299        2.0456550640        1.9246234077
 H          0.7323133436        4.5075327817        1.9138423545
 H         -1.0655343038        5.8489927203        0.8794672861
 H         -2.9975749706        4.7222003800       -0.1664159900
 H         -3.1349958384        2.2628977167       -0.1902624536
 H         -2.4741899825        0.0044694637       -2.2729241379
 H         -2.5207020856        0.0424041895       -4.5895897598
 H         -1.2153101772       -0.8749911469       -5.3488048150
 H         -1.1749381031        0.8843150275       -5.3666812097
  62
  -87.7049041800000       0.144095249780024      !
 C          0.7747339055       -1.2314320107       -4.7676205269
 C          0.3805380292       -0.5938407336       -3.4706894485
 C          0.7366901106       -1.1848097949       -2.2750069053
 C          0.3520543427       -0.6036147507       -1.0724651395
 P          0.8331726933       -0.9477453199        0.6210227441
 C          1.2416996714       -2.7049948466        0.7105872410
 C          2.1996457670       -3.1833609442        1.6089785563
 C          2.3803911481       -4.5419271895        1.7632186961
 C          1.5829373070       -5.4385998322        1.0637273208
 C          0.5908148774       -4.9674540269        0.2139914563
 C          0.4024252658       -3.6107885640        0.0542005927
 C          2.3817004031       -0.0556908834        0.8888234382
 C          2.3545415830        1.2179452959        1.4641500473
 C          3.4895569770        2.0011886378        1.4750992328
 C          4.6642746060        1.5344523133        0.9019525352
 C          4.6923288753        0.2755645320        0.3101016670
 C          3.5629881478       -0.5114703808        0.2886178324
 C         -0.3362458735        0.6382413580       -1.0752199900
 P         -0.7974572040        0.9987842106        0.6210508387
 C         -2.3058150887        0.0473226738        0.9273845369
 C         -3.4943152720        0.4006846353        0.2767039792
 C         -4.5850496630       -0.4381200404        0.3338543738
 C         -4.5086022074       -1.6488844776        1.0146278641
 C         -3.3264769406       -2.0136529806        1.6432942779
 C         -2.2306469168       -1.1772054279        1.5961201990
 C         -1.2981193183        2.7364324484        0.6645738665
 C         -2.2989058835        3.1856564645        1.5296750701
 C         -2.5621487769        4.5356515357        1.6347175715
 C         -1.8065457825        5.4546533443        0.9183067882
 C         -0.7715084706        5.0159898874        0.1032042680
 C         -0.5000478569        3.6683446665       -0.0062391190
 C         -0.7223930985        1.2121208004       -2.2798827739
 C         -0.3654459488        0.6159982010       -3.4732831868
 C         -0.7562051022        1.2507366393       -4.7727123885
 H         -0.1067014651       -1.4888385046       -5.3553404434
 H          1.3471390493       -2.1385775057       -4.5899746464
 H          1.3817860790       -0.5503576702       -5.3638087363
 H          1.2987482868       -2.1099423008       -2.2720680341
 H          2.8101683264       -2.4792401397        2.1584956755
 H          3.1391802604       -4.9102535996        2.4387245172
 H          1.7218028020       -6.5012410812        1.1959051327
 H         -0.0433720615       -5.6655575905       -0.3135936039
 H         -0.3816393128       -3.2310819566       -0.5880739268
 H          1.4391067831        1.5715985958        1.9263653207
 H          3.4634551616        2.9799378687        1.9324766983
 H          5.5527155568        2.1477957631        0.9099403885
 H          5.6050313877       -0.0844700627       -0.1432629879
 H          3.5781949634       -1.4844090323       -0.1838540444
 H         -3.5453916462        1.3353570931       -0.2658522386
 H         -5.5036656662       -0.1574513131       -0.1617250121
 H         -5.3655574619       -2.3047101793        1.0491563597
 H         -3.2631412811       -2.9539084488        2.1723037719
 H         -1.3116416225       -1.4490894260        2.1039282262
 H         -2.8784488804        2.4653261979        2.0914641148
 H         -3.3545519066        4.8798024440        2.2838682397
 H         -2.0115939054        6.5108490948        1.0102593894
 H         -0.1704803024        5.7329347003       -0.4377916362
 H          0.3168932451        3.3147025554       -0.6219003321
 H         -1.2856501481        2.1365145212       -2.2830185562
 H         -1.3364974349        2.1535389797       -4.5985516941
 H         -1.3538227567        0.5657016781       -5.3737293357
 H          0.1274127515        1.5153830895       -5.3540512142
  62
  -87.7048978900000       0.143139330084949      !
 C          1.4666514427       -0.0014036790       -4.7788020390
 C          0.7200550147        0.0054069414       -3.4800966164
 C          1.4132915196        0.0077405270       -2.2859449713
 C          0.7207467584        0.0404716764       -1.0818315217
 P          1.2669723355       -0.1641665277        0.6151185390
 C          1.2471797408       -1.9441045452        0.9384836753
 C          0.1679009121       -2.5140796367        1.6185173241
 C          0.0344321455       -3.8851028494        1.6891659279
 C          0.9662237233       -4.7082077845        1.0726240972
 C          2.0335074214       -4.1467585751        0.3791226721
 C          2.1717653283       -2.7789962871        0.2985637007
 C          3.0087807465        0.3215058617        0.6587311115
 C          3.3813926451        1.4907810453       -0.0116661637
 C          4.6702293233        1.9691361840        0.0976440581
 C          5.5883909379        1.3189621567        0.9113423330
 C          5.2048295988        0.1920367386        1.6268007460
 C          3.9181401690       -0.2939260876        1.5225928852
 C         -0.6979572885       -0.0140144027       -1.0809970673
 P         -1.2443775358        0.2123139637        0.6128802318
 C         -2.9592900423       -0.3518355334        0.6923370139
 C         -3.8694485379        0.2114462171        1.5910061542
 C         -5.1262100696       -0.3388439195        1.7331265510
 C         -5.4767239736       -1.4784238982        1.0206846410
 C         -4.5548832120       -2.0757079041        0.1710946069
 C         -3.2956960484       -1.5331558977        0.0238499599
 C         -1.2906559727        1.9974944521        0.8914037346
 C         -0.1902228560        2.6341084186        1.4723037757
 C         -0.1160414815        4.0109418376        1.4988836063
 C         -1.1293228296        4.7746277593        0.9362323850
 C         -2.2173340379        4.1467810671        0.3383920084
 C         -2.2974254131        2.7726394033        0.3010693083
 C         -1.3926718365        0.0163447013       -2.2843168389
 C         -0.7012918364        0.0182906568       -3.4792647744
 C         -1.4496304149        0.0264968820       -4.7769116287
 H          2.5395862768       -0.0190143807       -4.6036083075
 H          1.2272698892        0.8850767370       -5.3666028442
 H          1.1987909431       -0.8743536223       -5.3738683207
 H          2.4957714210        0.0033187673       -2.2871856218
 H         -0.5472566598       -1.8674960374        2.1153879357
 H         -0.7970507870       -4.3175660376        2.2272132547
 H          0.8611241204       -5.7813990007        1.1262573704
 H          2.7549773472       -4.7881983421       -0.1070194331
 H          2.9921829263       -2.3390275948       -0.2527688742
 H          2.6508493370        2.0000306846       -0.6268876507
 H          4.9629918924        2.8583296213       -0.4422914946
 H          6.5945754539        1.7000196731        1.0029917494
 H          5.9148994775       -0.3014182399        2.2749892208
 H          3.6108836032       -1.1659051763        2.0843104650
 H         -3.5870109590        1.0934440864        2.1502780693
 H         -5.8381952537        0.1140459444        2.4081252556
 H         -6.4589148820       -1.9102901958        1.1421428935
 H         -4.8208351967       -2.9744565334       -0.3668597591
 H         -2.5615206563       -2.0016646917       -0.6185857789
 H          0.5909272758        2.0336497992        1.9261874722
 H          0.7327562979        4.4953611248        1.9603931537
 H         -1.0716039541        5.8525490878        0.9573940158
 H         -3.0022987204        4.7414135046       -0.1070671465
 H         -3.1349500940        2.2827213253       -0.1772746114
 H         -2.4751695582        0.0196567614       -2.2830062916
 H         -1.1770345734        0.8960838895       -5.3745836145
 H         -2.5221282518        0.0515732555       -4.6001704138
 H         -1.2167904944       -0.8630340546       -5.3626388361
  62
  -87.7048827400000       0.140862866670953      !
 C          0.5113871249       -1.1861706580       -4.8239354758
 C          0.1789784997       -0.5759529293       -3.4968218351
 C          0.6003020775       -1.1865870238       -2.3320914330
 C          0.2731409925       -0.6325953426       -1.1008646559
 P          0.8247988097       -1.0154357869        0.5633813945
 C          1.3402277362       -2.7500636571        0.5502160075
 C          0.5172333224       -3.6784459906       -0.0944981252
 C          0.8079788380       -5.0248782370       -0.0246475956
 C          1.8892972265       -5.4666102870        0.7258813535
 C          2.6726981395       -4.5522243414        1.4180760169
 C          2.3902472423       -3.2037224954        1.3523413749
 C          2.3423347313       -0.0591320504        0.8028057805
 C          3.4944222928       -0.3917242725        0.0796816137
 C          4.5801827403        0.4552688328        0.0881948665
 C          4.5335485515        1.6547118606        0.7913975011
 C          3.3871268159        1.9986605879        1.4933347146
 C          2.2971722217        1.1531418366        1.4959364518
 C         -0.4193127526        0.6055550500       -1.0446990510
 P         -0.8035968486        0.9311051289        0.6768696288
 C         -2.3398941461        0.0475272800        1.0277799165
 C         -3.5528523700        0.5229518500        0.5117952224
 C         -4.6865636567       -0.2534786054        0.5968636823
 C         -4.6332103036       -1.5203331193        1.1694980875
 C         -3.4283478060       -2.0065126943        1.6579324276
 C         -2.2882493158       -1.2343086599        1.5828105202
 C         -1.1927312407        2.6904070221        0.8086962119
 C         -2.0863726808        3.1667438912        1.7718718793
 C         -2.2480090376        4.5251580125        1.9481923188
 C         -1.4932673039        5.4229073626        1.2042935895
 C         -0.5615378454        4.9530253238        0.2879847455
 C         -0.3920680713        3.5967011463        0.1063511258
 C         -0.8716233965        1.1994717877       -2.2171096107
 C         -0.5757517491        0.6269939290       -3.4379261862
 C         -1.0425310741        1.2791973363       -4.7031977321
 H          1.0781192489       -0.4874899033       -5.4391565141
 H         -0.3967143918       -1.4448889177       -5.3689898925
 H          1.1029567210       -2.0890043232       -4.6927091191
 H          1.1691675645       -2.1064120847       -2.3774056774
 H         -0.3348693341       -3.3236831031       -0.6597227757
 H          0.1862139119       -5.7385360763       -0.5462491865
 H          2.1100952172       -6.5218893644        0.7867180549
 H          3.5022810420       -4.8990858930        2.0173879174
 H          2.9919969417       -2.4868992084        1.8949015121
 H          3.5216369233       -1.3174744124       -0.4796427633
 H          5.4711225966        0.1904589770       -0.4634319660
 H          5.3858218529        2.3174764803        0.7867430831
 H          3.3463742028        2.9300537302        2.0398957822
 H          1.4071066067        1.4093464415        2.0601483921
 H         -3.5884402525        1.5023569362        0.0538003355
 H         -5.6230075140        0.1213987740        0.2085740078
 H         -5.5258098671       -2.1248323833        1.2281996392
 H         -3.3830153849       -2.9915740108        2.1001703178
 H         -1.3475043699       -1.6037101888        1.9769596845
 H         -2.6638443272        2.4620012255        2.3553317330
 H         -2.9583942855        4.8921877718        2.6750700406
 H         -1.6166385224        6.4852910134        1.3531593195
 H          0.0402829117        5.6517858132       -0.2754311010
 H          0.3458781668        3.2177303181       -0.5887359489
 H         -1.4387141165        2.1204607026       -2.1722063489
 H         -0.1943963977        1.5662136351       -5.3248802127
 H         -1.6245346117        2.1703617062       -4.4821995276
 H         -1.6618391794        0.5963604914       -5.2839407333
  62
  -87.7048327400000       0.133603585489778      !
 C          1.3855771865       -0.1035558125       -4.7804737575
 C          0.6512826880       -0.0855788048       -3.4749235423
 C          1.3553561021       -0.0607611223       -2.2879966761
 C          0.6731821467       -0.0209108444       -1.0773259427
 P          1.2414077429       -0.2229722755        0.6117148071
 C          1.3279279416       -2.0030349321        0.9083851845
 C          0.2398613501       -2.6585779378        1.4917842351
 C          0.1961781785       -4.0363093702        1.5294147197
 C          1.2266942425       -4.7820315414        0.9738917987
 C          2.3012750741       -4.1354069159        0.3715974344
 C          2.3519578751       -2.7604909354        0.3242193842
 C          2.9423182334        0.3815680030        0.6740482602
 C          3.2507255370        1.5578120445       -0.0165779009
 C          4.4978742547        2.1305214300        0.1172678353
 C          5.4347189316        1.5695736863        0.9753699353
 C          5.1112413719        0.4358506027        1.7096130453
 C          3.8669096958       -0.1448469393        1.5805962170
 C         -0.7450288547       -0.0871016006       -1.0624114894
 P         -1.2741481130        0.1389700352        0.6377087228
 C         -3.0304190907       -0.2982910160        0.6885097669
 C         -3.4358264919       -1.4722825341        0.0465392051
 C         -4.7416494642       -1.9029550720        0.1545369685
 C         -5.6450838837       -1.1993160038        0.9396201550
 C         -5.2299101286       -0.0674428432        1.6290130388
 C         -3.9260680595        0.3708840656        1.5258531849
 C         -1.2173006145        1.9257278567        0.9247204144
 C         -0.1409989363        2.4853139287        1.6172016887
 C          0.0295455337        3.8539020147        1.6519309067
 C         -0.8622378258        4.6835419737        0.9875703218
 C         -1.9284591787        4.1318440057        0.2848779694
 C         -2.1027572147        2.7664500177        0.2400103020
 C         -1.4504082346       -0.0784421309       -2.2588118036
 C         -0.7699893602       -0.0866034792       -3.4606349479
 C         -1.5307745786       -0.1044056836       -4.7507738501
 H          1.1335091284        0.7731240574       -5.3776190410
 H          1.1190916215       -0.9865736435       -5.3611291245
 H          2.4601711196       -0.1104207985       -4.6151135345
 H          2.4377725892       -0.0532481113       -2.2981075581
 H         -0.5553402368       -2.0709795610        1.9380491139
 H         -0.6416412633       -4.5359559653        1.9945110808
 H          1.1926094529       -5.8606720701        1.0034490029
 H          3.0991951553       -4.7162299295       -0.0689765495
 H          3.1792951832       -2.2556769512       -0.1562957987
 H          2.5047691871        1.9981574525       -0.6653385695
 H          4.7426196012        3.0248562834       -0.4378109289
 H          6.4073649779        2.0253445642        1.0863621608
 H          5.8343779067        0.0120642956        2.3917768072
 H          3.6051143337       -1.0223714299        2.1567240610
 H         -2.7174448681       -2.0226567163       -0.5472348727
 H         -5.0597418952       -2.7959306823       -0.3644329296
 H         -6.6651253061       -1.5420654125        1.0292063291
 H         -5.9290414300        0.4683167312        2.2550757539
 H         -3.5949505879        1.2473272852        2.0665329487
 H          0.5416153721        1.8347924099        2.1528541418
 H          0.8593032389        4.2787642461        2.1986179158
 H         -0.7270492754        5.7544463220        1.0115051748
 H         -2.6189472131        4.7781205869       -0.2382467093
 H         -2.9210309968        2.3327630256       -0.3195207266
 H         -2.5328054936       -0.0844926133       -2.2491559378
 H         -1.2882438525       -0.9959169704       -5.3297374864
 H         -1.2788893195        0.7638644279       -5.3597651349
 H         -2.6018367117       -0.0959457727       -4.5633065001
