61
 energy: -97.920103234272 gnorm: 0.000030552338 xtb: 6.7.1 (edcfbbe)
C           -7.62260989082673        3.02994845299258        0.22547320163955
C           -6.48217606780894        3.15757489932605       -0.55125153834096
C           -5.57200032399781        2.12091429025451       -0.63357064233385
C           -5.78978234892067        0.93876072018432        0.07306431540236
N           -4.86928533406298       -0.11889311757105       -0.00391970347200
C           -5.34890721754956       -1.43632206349917       -0.07309122185514
C           -6.47934149777592       -1.73249810591128       -0.83369050727426
C           -6.95944932006487       -3.02708875481213       -0.89103098718756
C           -6.31893328869709       -4.04394157417640       -0.20129209191347
C           -5.19394595593189       -3.75473056602066        0.55428684855902
C           -4.71154478970883       -2.46159812249452        0.62480194706637
C           -3.50315445097294        0.13715193159355       -0.00781363602344
C           -2.97787238859490        1.22900735546294        0.69033009083104
C           -1.62542760458775        1.48865744222816        0.67455688696142
C           -0.74096582488122        0.66120653382603       -0.02029898596852
C            0.69590640502292        0.93375059195393       -0.02967059282038
C            1.18109604705142        2.26334939348118       -0.06611965819797
N            2.43956146287382        2.60146890004101       -0.07691595516628
C            3.36829900173462        1.63193311188127       -0.05043251571282
N            4.66207099180011        2.02730067040118       -0.05768620598245
C            5.54090149663811        1.06411639090576       -0.02863541295774
C            5.17191581276983       -0.33980137708955        0.01032903166425
N            3.93150615031597       -0.74115065724191        0.01297681233850
C            3.00208233563944        0.25150339955048       -0.01898018673431
C            1.63914666483961       -0.07558816720356       -0.00990483597257
C            6.39427623937536       -1.12728870865272        0.03941765335730
C            6.69586202987513       -2.46648440769432        0.08180206614502
C            8.05188354894170       -2.84398113273395        0.09790483486843
C            9.07998446004272       -1.93101449202595        0.07210152133918
C            8.80532981484271       -0.54482856830375        0.02830684958249
C            9.72658128727257        0.52734521188088       -0.00277173018788
C            9.28045595262702        1.82761401654997       -0.04309461730193
C            7.91405453863364        2.16573085691693       -0.05617438628656
C            6.99243953714963        1.14769435410594       -0.02745851794448
C            7.45354759524348       -0.18950756745719        0.01405136535200
C           -1.26723257833584       -0.43479322065010       -0.70705729783267
C           -2.62070682866164       -0.68904240522577       -0.71088409690508
C           -6.93900162717603        0.81448939247195        0.85248760094811
C           -7.84758383088160        1.85346293576388        0.92199398011296
H           -8.33238698568586        3.84120592677203        0.28565182847065
H           -6.30267288604005        4.06811243690909       -1.10416421246901
H           -4.68839910424068        2.21847639307895       -1.24756245766380
H           -6.97541586755126       -0.94198777278281       -1.37777534666741
H           -7.83525801197271       -3.24402694995620       -1.48502521688225
H           -6.69459814640422       -5.05486766169980       -0.25121374079942
H           -4.69252955093509       -4.54004674744639        1.10107164518530
H           -3.84128647245550       -2.23622216491299        1.22398408835063
H           -3.64116398765553        1.86856141973363        1.25339672379715
H           -1.24171490961009        2.32415807115103        1.24106532856442
H            0.48389470557983        3.09085553244023       -0.10881880704569
H            1.36031487315048       -1.11826527317764        0.03547014413688
H            5.91934881762099       -3.21567131497181        0.10250643382447
H            8.28622211734132       -3.89809787023228        0.13140268800096
H           10.10591427734105       -2.26863938647044        0.08532239171335
H           10.78601356292615        0.31709942801397        0.00600444916620
H           10.00314917966222        2.63032778855295       -0.06575020147664
H            7.60466989735162        3.19904498866611       -0.08765524343670
H           -0.60740929467630       -1.07381697551639       -1.27506590273497
H           -3.00920416990431       -1.52776293127705       -1.26924846950770
H           -7.11174625016857       -0.09920481606553        1.40234076008834
H           -8.73271799693238        1.74634003616735        1.53192243557579
