61
 energy: -97.875337262714 gnorm: 0.000069445360 xtb: 6.7.1 (edcfbbe)
C           -6.78243128922376        4.09482591838842        0.07049052138394
C           -5.64020771209227        3.78448646978076       -0.65056916900121
C           -5.15917439648539        2.48956484134366       -0.67723297846374
C           -5.81552454193093        1.48241997459495        0.03108756811431
N           -5.33606268292871        0.16586890494543        0.00832528337048
C           -6.24809719571495       -0.89885335909636       -0.03202836027292
C           -7.40373177041411       -0.80759125421135       -0.80778146355571
C           -8.30089943343534       -1.85778151021194       -0.84388962539722
C           -8.05944946838650       -3.01232815308607       -0.11628174212477
C           -6.91292953301864       -3.10725975645217        0.65658703599666
C           -6.01281275660434       -2.06005103626623        0.70443925999631
C           -3.96647611410705       -0.08831281931958        0.01681633515440
C           -3.08689987985314        0.74641895347268        0.71219839029881
C           -1.73263340090848        0.49415950568203        0.71111483201928
C           -1.20374450813176       -0.60479101532653        0.03013520640468
C            0.23182968719264       -0.87547841751628        0.03910458735977
C            0.71989138142071       -2.17388551619533        0.09705407682525
N            2.01128622015214       -2.46584376266447        0.11531410455123
C            2.94431645458723       -1.53821360889471        0.07795864970620
N            4.22957141220381       -1.85490781159825        0.08507549297437
C            5.14306414446025       -0.89396414454168        0.03896551028765
C            4.75492056399287        0.47831809684104       -0.02376976552230
N            3.48473741179053        0.82030402670475       -0.02155000050206
C            2.54267382229390       -0.12696904147348        0.02520960070932
C            1.18713961613721        0.15545781835635        0.00543150451204
C            5.95542648891726        1.29292679620308       -0.06733498537863
C            6.22981418182595        2.63699880404331       -0.13505326793550
C            7.57972250006382        3.03891455628141       -0.15747538401907
C            8.62599340540833        2.14826508899242       -0.11319894791598
C            8.37716737263786        0.75715486013901       -0.04263916009511
C            9.31732760006574       -0.30097089204882        0.01183698800338
C            8.88586491984736       -1.60487036621966        0.07650901467322
C            7.52498293629518       -1.96549974437971        0.09379906908746
C            6.58464383132112       -0.96196036506524        0.04315279629363
C            7.03627254796288        0.38105624040125       -0.02372380235599
C           -2.08778341366470       -1.44093868878695       -0.65593782058491
C           -3.44112855414126       -1.18653473053445       -0.67070636421338
C           -6.96365328179888        1.80037772136320        0.75730255333658
C           -7.44144863217256        3.09670061716696        0.77059968949581
H           -7.15650248942698        5.10736411987536        0.08606767481727
H           -5.12422883118414        4.55473998476647       -1.20495457144899
H           -4.27688309740745        2.24762671585729       -1.25156425770529
H           -7.58806638871215        0.08770865613844       -1.38328272715714
H           -9.19005495763947       -1.77730905690452       -1.45185676603673
H           -8.76098855397034       -3.83211134647712       -0.14998340378928
H           -6.72076555590551       -4.00049303265310        1.23276058092235
H           -5.12462958763673       -2.13130517332034        1.31517570509813
H           -3.47720850002888        1.58974577958672        1.26247340148230
H           -1.07352216113330        1.14029752315522        1.27158028997071
H            0.06054166859729       -3.02752586789495        0.16081319874144
H            0.88299651726484        1.18751761520579       -0.07192564574488
H            5.44208017430115        3.37427772437039       -0.17089177640258
H            7.79242816671290        4.09698477242035       -0.21117747041363
H            9.64492109578947        2.50636564891460       -0.13210214252886
H           10.37372389554950       -0.07684213399137        0.00169661123334
H            9.61881883061361       -2.39806032061660        0.11666265914795
H            7.23726997350053       -3.00458771446776        0.14514759976798
H           -1.70074764954773       -2.28141116718523       -1.21254394224867
H           -4.10427225630923       -1.83227722559720       -1.22696815133101
H           -7.47286174951863        1.02603447560017        1.31216011020803
H           -8.32995825654319        3.33026759893706        1.33868905189830
