61
 energy: -97.920106660544 gnorm: 0.000032100075 xtb: 6.7.1 (edcfbbe)
C           -6.79648936616894        4.08317691860611        0.08353346165741
C           -5.66105327420278        3.78247166262043       -0.65165949597207
C           -5.16940658509984        2.49136703913304       -0.68392143191096
C           -5.80718855462474        1.47963112203356        0.03330049179631
N           -5.31688572177946        0.16502611005683        0.00426952504172
C           -6.22738862970144       -0.90320323987362       -0.04295752092652
C           -7.37209431992010       -0.81684916150187       -0.83392947231429
C           -8.27069150117895       -1.86608152063781       -0.87300030357836
C           -8.04017864629518       -3.01494511323484       -0.13345178676113
C           -6.90372963298095       -3.10505101095923        0.65426342877077
C           -6.00332119568538       -2.05790835182236        0.70572702283136
C           -3.94864444222627       -0.08026091074936        0.01851156675091
C           -3.07433028748511        0.76977033035689        0.70295784855854
C           -1.71861640371194        0.52770640919701        0.70538010242787
C           -1.18232513471420       -0.57886122063028        0.04382598954801
C            0.25754088552895       -0.83526395336281        0.05595755977585
C            0.75836168109315       -2.15765608121033        0.12581657158493
N            2.02080816422369       -2.48055494729097        0.14072256895125
C            2.93795946911413       -1.50123204169329        0.08553116371511
N            4.23640427555777       -1.88091331549529        0.09992670398898
C            5.10365487737346       -0.90842751485609        0.04424951018929
C            4.71785578647458        0.48954936445388       -0.03035172580585
N            3.47275890785750        0.87591391754479       -0.04119723946423
C            2.55536057751259       -0.12652055374500        0.01878804219537
C            1.18865156082478        0.18417783749061        0.00559990601804
C            5.93057728109254        1.29076248578119       -0.07954503125799
C            6.21589937410638        2.63220568905220       -0.15330132627009
C            7.56724384181768        3.02568732170889       -0.17649557142227
C            8.60628219074051        2.12617082295412       -0.12694954147800
C            8.34845754946368        0.73819931269508       -0.04995336868802
C            9.28266746179415       -0.32144049660088        0.01007739173942
C            8.85228801842150       -1.62571427880915        0.08141018636578
C            7.49008219277653       -1.98007499579948        0.10051414772612
C            6.55613143321515       -0.97442623926002        0.04499378768795
C            7.00106992277745        0.36683244877307       -0.02970523394045
C           -2.05899172529851       -1.43175762220247       -0.62969979174432
C           -3.41376581939372       -1.18480666929291       -0.65171422312142
C           -6.94849728619144        1.78738886106490        0.77290540496529
C           -7.43805653970498        3.07957151344917        0.79143983387996
H           -7.17931087998936        5.09245893797714        0.10343169681942
H           -5.15855803964681        4.55695451364619       -1.21272608846302
H           -4.29130814079593        2.25706034115569       -1.26802387256872
H           -7.54929848309171        0.07552502706401       -1.41640936879408
H           -9.15254758010271       -1.78869502135869       -1.49209365724368
H           -8.74248757879064       -3.83409899405565       -0.16927035618420
H           -6.71978135267005       -3.99406393764896        1.23979131566870
H           -5.12250290063499       -2.12587178933560        1.32764280130905
H           -3.47076736409126        1.61800988377104        1.24100737300112
H           -1.06453002894616        1.18577775873875        1.25807613335680
H            0.07106517608886       -2.99181038668620        0.19304136288822
H            0.89721345791711        1.22187872866478       -0.06663076536705
H            5.43038055624019        3.37116997561260       -0.19282887757030
H            7.78885913251062        4.08147816410979       -0.23464682068535
H            9.62805002586482        2.47586500273639       -0.14631329486965
H           10.33947706404971       -0.09845846667308       -0.00129838452265
H            9.58464150769255       -2.41871181532786        0.12554097413726
H            7.19323611868092       -3.01597060359715        0.15748764740677
H           -1.66738956205068       -2.27735479040775       -1.17545180418491
H           -4.07151304542458       -1.84391175534761       -1.19851769375209
H           -7.44559379076654        1.00793432491637        1.33178299609175
H           -8.32211717950357        3.30525307987479        1.36976592064276
