  59
        -74.39244484
 C         -4.8225071298        2.2034673378       -1.2730549431
 C         -4.9145090289        2.8427781083        0.1081110914
 C         -3.5942622071        2.7925739387        0.8772367808
 C         -3.1894679666        1.3735090649        1.2638043132
 C         -1.8565755358        1.3450989214        2.0032897078
 C         -1.3992718023       -0.0617546966        2.3916741697
 C         -0.8948109703       -0.9301522040        1.2150090928
 C         -0.2186914594       -2.1843758440        1.8134378482
 C          0.1101123889       -3.2972045798        0.8156632689
 C          1.1847483808       -2.9687188262       -0.2205731632
 C          2.5544490797       -2.6665509604        0.3787385507
 C          3.5724150224       -2.3149091313       -0.7031530634
 C          4.9190702256       -1.9244747793       -0.1071471681
 C         -2.0004652289       -1.2973949403        0.2575327484
 C         -3.1219167795       -2.0408977154        0.4738118542
 C         -4.0216967622       -2.2543151727       -0.5828375227
 C         -3.7730011801       -1.7103411691       -1.8600787618
 C         -2.6550196397       -0.9723891867       -2.1169994017
 C         -1.7188809384       -0.7481224825       -1.0599810000
 C         -0.5136108854       -0.0753103435       -1.0249660721
 C          0.2229495417        0.6259470393       -2.0388679118
 C          1.4105520859        1.2012374823       -1.7181840533
 C          1.9140706040        1.1234659294       -0.3948383563
 Br         3.5796182541        1.9332868872        0.0045270617
 C          1.2108974961        0.4534457106        0.6329120179
 C          0.0362953427       -0.1476088148        0.3238033278
 H         -4.6317576399        1.1362412200       -1.2001728402
 H         -5.7538519000        2.3453722524       -1.8162694625
 H         -4.0179473064        2.6578695103       -1.8474269021
 H         -5.2127623135        3.8873966041       -0.0060838647
 H         -5.6896310444        2.3390770907        0.6894227971
 H         -3.6874406433        3.3989158876        1.7818334394
 H         -2.8065273906        3.2348147259        0.2632414504
 H         -3.1067919488        0.7727157837        0.3616020426
 H         -3.9662544205        0.9304534282        1.8911522687
 H         -1.9461262984        1.9401607872        2.9162643419
 H         -1.0926148095        1.8132794064        1.3810671989
 H         -2.2208080156       -0.5853444332        2.8823688143
 H         -0.5821508416        0.0282234580        3.1103242231
 H          0.6882389497       -1.8747448492        2.3307918523
 H         -0.8982696514       -2.6007080686        2.5603132460
 H          0.4350294371       -4.1697974695        1.3888593666
 H         -0.8039777656       -3.5730596318        0.2865504344
 H          1.2771904933       -3.8240242945       -0.8952581969
 H          0.8652469005       -2.1173628817       -0.8197627684
 H          2.4779676830       -1.8229151382        1.0618516305
 H          2.9074009688       -3.5300093114        0.9468571590
 H          3.1854344350       -1.4831691188       -1.2952646691
 H          3.7027911097       -3.1662812131       -1.3745538162
 H          5.3232786375       -2.7381513138        0.4908603118
 H          4.8143417368       -1.0507187560        0.5319640046
 H          5.6331862288       -1.6873944266       -0.8919163778
 H         -3.3332260506       -2.4629908266        1.4456755472
 H         -4.9134684133       -2.8376953613       -0.4189442743
 H         -4.4928039898       -1.8897662454       -2.6455971405
 H         -2.4667953210       -0.5572383101       -3.0947791019
 H         -0.1694857467        0.6826430130       -3.0416846904
 H          1.9911732772        1.7275735969       -2.4606844853
 H          1.6216360064        0.4372981646        1.6306262840
