92
 energy: -130.768367878818 gnorm: 0.000057951651 xtb: 6.7.1 (edcfbbe)
C           -6.40199948088794        4.45611881476876        3.75805666574120
C           -5.98181416538667        3.37968376612622        2.80456320074119
C           -6.19093562914649        3.52467127337787        1.43688295353019
C           -5.81539082432172        2.54517050944451        0.53546119094530
C           -6.07985199972765        2.76979681207107       -0.92398779470374
C           -5.16375791591136        1.38173111163013        0.98807427156028
B           -4.58215517047666        0.31076464283622       -0.01166780443075
C           -3.15545291054739       -0.18593949974064        0.11567412849079
C           -2.13556015454820        0.57608137421625        0.76121075196647
C           -0.85115816777772        0.13339123193224        0.88180263516325
C           -0.47804006794665       -1.12652873590473        0.37076171307707
N            0.82608481799821       -1.58870910475782        0.50068976778887
C            1.19612751044212       -2.85578619141296        0.91733297815827
C            0.40361836244471       -3.90951696544945        1.34645496774794
C            1.03509021088716       -5.07596839646221        1.74087143350291
C            2.42392777320029       -5.19236294365083        1.72066867666169
C            3.22184131079722       -4.13588752826360        1.32599867185460
C            2.61044825026779       -2.95385088734789        0.92807645251860
C            3.10837176451423       -1.67900020113414        0.50505488448063
C            4.38357812549931       -1.17570641766120        0.30724412465353
C            4.52112175396629        0.12741567318816       -0.15540411163447
N            5.80004076649483        0.66229775034656       -0.35364870411813
C            6.83345852062879        0.62990403255172        0.56096937561613
C            6.85011842605672        0.13696740419808        1.85839913159257
C            8.02303127205155        0.25753357141677        2.57912876113767
C            9.15356687551404        0.86109789014154        2.03326959797321
C            9.13529643484749        1.37641246175202        0.75163590118229
C            7.96886711380392        1.26643434167571        0.00784235339686
C            7.59315665286603        1.69469803117977       -1.31132355303190
C            8.27132655598865        2.34500385922406       -2.33257934736724
C            7.60574525146891        2.58846413222729       -3.51835850584534
C            6.28713105578562        2.17679723524261       -3.69712525397920
C            5.59128025679669        1.52742805129951       -2.69518967432146
C            6.24578368302483        1.30372599804501       -1.49178340387701
C            3.39138403570705        0.91191634476004       -0.43696402675017
C            2.11523202489235        0.42390064941324       -0.24536717252615
C            1.96989552098420       -0.86622241875246        0.24849401731271
C           -1.45878221828342       -1.90850352176449       -0.27339638552727
C           -2.73738388037325       -1.45028814693325       -0.39743930021344
C           -5.53354800005541       -0.23019764898545       -1.14663022780832
C           -5.08311607601554       -0.27199349647356       -2.48019704510847
C           -3.76284037299174        0.31219327497590       -2.88928682644532
C           -5.85989378655337       -0.87418872909398       -3.45839258860311
C           -7.10922000694907       -1.40138891326959       -3.17267707331458
C           -7.94774627846094       -2.04292815272809       -4.23562592147638
C           -7.57315336215628       -1.31306195865757       -1.86410646891106
C           -6.82204869982704       -0.72274891857355       -0.86394990203209
C           -7.39153011196543       -0.65934405131659        0.52243536505347
C           -4.99829447548864        1.20946679335983        2.37619557392186
C           -4.39973146461494       -0.03931797694384        2.95396124277398
C           -5.38269007751729        2.21293983635429        3.25241128647402
H           -5.67615094955569        5.27059079095372        3.74448964733724
H           -7.36904331979983        4.86805287222178        3.47496652104673
H           -6.46487704190117        4.07410294683797        4.77433279915593
H           -6.66450203899526        4.42638649978239        1.07182203091767
H           -6.85290674051652        2.09204011408154       -1.28315165053926
H           -6.40919359836786        3.79131964553884       -1.10241425492130
H           -5.18261580626393        2.58340580118934       -1.50949484221677
H           -2.40973800219489        1.53620477268120        1.17649632539525
H           -0.11396492190502        0.71828704565014        1.41414187047795
H           -0.67085739571353       -3.82080803778510        1.38892768877198
H            0.43925385809866       -5.91108391790144        2.07712041078636
H            2.87974652630081       -6.12064913461706        2.03129036493360
H            4.29803583899853       -4.22084877708754        1.33005462030230
H            5.25455016542221       -1.78917604669901        0.47918750917818
H            5.97337228465493       -0.31498335222428        2.29696634569858
H            8.06237487285861       -0.12103634297512        3.58981596316250
H           10.05196544585977        0.93386865781536        2.62786716769965
H           10.00616318746593        1.85957348278580        0.33508390603888
H            9.29912132251448        2.64761749751478       -2.20050081411100
H            8.11434099433005        3.09547596811844       -4.32471183162231
H            5.79846813884899        2.36538440277826       -4.64157804751990
H            4.57642952088323        1.19466582929049       -2.85103190507236
H            3.53303450966795        1.92067204813175       -0.79269656590907
H            1.25637762108597        1.03283822019148       -0.48017350519397
H           -1.16709430482008       -2.85440607865290       -0.70803570140804
H           -3.47300003559690       -2.05505568316585       -0.90983069627578
H           -3.81383788205163        0.69136302933119       -3.90861868686617
H           -3.46337832493091        1.11669037526162       -2.22211276775047
H           -2.98382438887745       -0.45039513901950       -2.85274267851277
H           -5.48590756031407       -0.91495207370109       -4.47291400762467
H           -7.58606659237736       -1.78294726721633       -5.22769329006511
H           -8.98777252762702       -1.73355799645152       -4.14677064114740
H           -7.91370559603627       -3.12857078432975       -4.13339510513708
H           -8.54970667087015       -1.71356625709888       -1.62627769689160
H           -7.62636298563856        0.36850952263788        0.79495913971121
H           -8.30305212527045       -1.24943718169498        0.59113395808970
H           -6.67497717914959       -1.03561458707336        1.24881469785377
H           -3.32265040002056        0.07953883894898        3.07855633936040
H           -4.55998749798952       -0.89310884372639        2.30024364240874
H           -4.82942835188816       -0.25028894895029        3.93181570662131
H           -5.22687325849090        2.07001763831789        4.31357725905310
