  92
       -130.85933793
 C         -8.8719462282       -2.9420941394        2.1346645655
 C         -7.7927246343       -2.0800829350        1.5537243257
 C         -7.5307576423       -0.8251558653        2.0896732614
 C         -6.5445777968       -0.0058733407        1.5697878013
 C         -6.2996291874        1.3321578410        2.2042272469
 C         -5.7621420169       -0.4331002492        0.4806762544
 B         -4.5951931815        0.4629265608       -0.0621368232
 C         -3.1517206083       -0.1394178048       -0.1056419603
 C         -2.7778582359       -1.2022208183        0.7253256157
 C         -1.5012429805       -1.7243172100        0.7069583480
 C         -0.5514126235       -1.2061035728       -0.1694065177
 N          0.7482874585       -1.7294291909       -0.1957037937
 C          1.0842544305       -3.0628924812       -0.3141941107
 C          0.2632796149       -4.1694206721       -0.4793683892
 C          0.8665992574       -5.4057332269       -0.6055611509
 C          2.2527429189       -5.5464782733       -0.5779994104
 C          3.0753439043       -4.4473765086       -0.4355133873
 C          2.4921476256       -3.1936581161       -0.3056879446
 C          3.0229966489       -1.8671453021       -0.1648360749
 C          4.3116197008       -1.3658806699       -0.0590147793
 C          4.4790492350        0.0016950875        0.0992573413
 N          5.7717541625        0.5426145269        0.2040349682
 C          6.2203667301        1.3691997235        1.2120925826
 C          5.5596656195        1.8144607505        2.3484741604
 C          6.2559355882        2.6266337629        3.2222668217
 C          7.5807127330        2.9864097259        2.9826097327
 C          8.2496683694        2.5296744207        1.8649283334
 C          7.5715403946        1.7111608273        0.9710765888
 C          7.9455280821        1.0542598430       -0.2493902764
 C          9.1151418330        1.0169743382       -0.9972869069
 C          9.1311121342        0.2800428387       -2.1643185155
 C          7.9969460536       -0.4056296229       -2.5951202625
 C          6.8219219569       -0.3843117533       -1.8692631341
 C          6.8051010672        0.3403382672       -0.6858397287
 C          3.3717067960        0.8558714806        0.1664075092
 C          2.0835127844        0.3708182901        0.0762734188
 C          1.9112644124       -0.9943558903       -0.1061054230
 C         -0.9017517995       -0.1585434057       -1.0175005691
 C         -2.1764360405        0.3659349657       -0.9735656942
 C         -4.8000471540        1.9354052957       -0.5618897003
 C         -4.0506304141        2.9995504460       -0.0421031894
 C         -3.0913147700        2.8181341825        1.1015290702
 C         -4.2037545320        4.2848424093       -0.5463463946
 C         -5.0878964749        4.5583978739       -1.5745890878
 C         -5.2527157767        5.9444166241       -2.1195205769
 C         -5.8387904483        3.5071251126       -2.0856800653
 C         -5.7129965355        2.2197210863       -1.5945214011
 C         -6.5411128619        1.1249398828       -2.2014133068
 C         -6.0322620766       -1.6968046578       -0.0611642391
 C         -5.2964398476       -2.2253220318       -1.2610931616
 C         -7.0357026588       -2.4954164900        0.4730940754
 H         -8.6862493813       -3.1220190477        3.1930135790
 H         -9.8392526851       -2.4479697222        2.0472271862
 H         -8.9242909982       -3.8997351978        1.6225627872
 H         -8.1156451155       -0.4823645759        2.9325236511
 H         -6.3730046073        2.1254567104        1.4633860199
 H         -7.0238006426        1.5215852438        2.9932888044
 H         -5.3010783539        1.3737968680        2.6363371711
 H         -3.5071234898       -1.6113595895        1.4100201348
 H         -1.2246865604       -2.5254784202        1.3768023584
 H         -0.8107602912       -4.0681396836       -0.5186091635
 H          0.2498571525       -6.2832767565       -0.7322122232
 H          2.6848621205       -6.5308495531       -0.6788728654
 H          4.1495838524       -4.5537841760       -0.4291767745
 H          5.1673607692       -2.0228882491       -0.0819884314
 H          4.5382688679        1.5272188389        2.5490188282
 H          5.7635728351        2.9884988692        4.1131332158
 H          8.0894328266        3.6255698858        3.6890667880
 H          9.2803252249        2.7976190480        1.6867565119
 H          9.9905062877        1.5577450503       -0.6699564863
 H         10.0311922136        0.2368795826       -2.7596691100
 H          8.0368437215       -0.9633234370       -3.5194204364
 H          5.9428310904       -0.9063904902       -2.2166776049
 H          3.5400637902        1.9154439123        0.2862244454
 H          1.2378118902        1.0372539964        0.1499723083
 H         -0.1713867253        0.2283156871       -1.7132111416
 H         -2.4372299880        1.1791413435       -1.6358914118
 H         -3.0892811624        1.7972171824        1.4700783153
 H         -2.0797029004        3.0747129738        0.7871747867
 H         -3.3607631445        3.4845395709        1.9208217537
 H         -3.6150040286        5.0866572565       -0.1211488753
 H         -6.2418991601        6.3308378457       -1.8735281564
 H         -5.1580117878        5.9421555934       -3.2044648468
 H         -4.5068920798        6.6178384547       -1.7043007548
 H         -6.5387500198        3.7032350409       -2.8866476711
 H         -7.1220062390        0.6162022080       -1.4350135767
 H         -7.2223378047        1.5274985119       -2.9476794822
 H         -5.9037966186        0.3837384674       -2.6808529539
 H         -4.7872577953       -3.1554945023       -1.0094624309
 H         -4.5605647235       -1.5170171037       -1.6284560725
 H         -6.0023138918       -2.4424270602       -2.0628348684
 H         -7.2249462460       -3.4635445307        0.0289827566
