92
 energy: -130.859422963915 gnorm: 0.000040226827 xtb: 6.7.1 (edcfbbe)
C           -8.87088730109172       -2.96931422300992        2.08435372349632
C           -7.79208718152014       -2.09708547247611        1.51808240916112
C           -7.54735756255013       -0.84112846201299        2.05951936633827
C           -6.56241769227200       -0.01203923948727        1.55274190817767
C           -6.33695742829284        1.32685314328558        2.19258278883570
C           -5.76400147434121       -0.43021259469791        0.47191249523633
B           -4.59930862781342        0.47643369163470       -0.05851791220861
C           -3.15241124693668       -0.11739292913731       -0.09189624236326
C           -2.77824551192938       -1.17377133806759        0.74695573317479
C           -1.50055766246955       -1.69301564412247        0.73509389745033
C           -0.55008110149011       -1.18027194496420       -0.14398532731711
N            0.74780119338544       -1.70796784088071       -0.16707632795962
C            1.07552398834510       -3.04524806407073       -0.26675938252645
C            0.24802092443172       -4.14887026948075       -0.41873548332301
C            0.84360427041389       -5.39067673219465       -0.52578891868385
C            2.22871183780887       -5.53996195402722       -0.49256208174180
C            3.05794678905173       -4.44407095868466       -0.36486574844694
C            2.48242894456949       -3.18496841252344       -0.25485890614510
C            3.02150492370212       -1.85992809427374       -0.13377787842777
C            4.31361561187063       -1.36610836408411       -0.03827421449210
C            4.49158467210848        0.00299309356027        0.09424120322348
N            5.78915267279418        0.53481253014413        0.18099314033925
C            6.25081172120679        1.38464164920219        1.16377414581161
C            5.59866700532091        1.87431432178452        2.28679795456229
C            6.30792805910483        2.70299020605223        3.13434504336731
C            7.63738240504095        3.03607718025630        2.88266437484249
C            8.29812483219410        2.53474951190142        1.77931507649935
C            7.60678530863441        1.69897286608461        0.91204832006288
C            7.97075491504348        0.99883724657152       -0.28718631963612
C            9.14045801300800        0.91952158055513       -1.03164221714974
C            9.14574738258537        0.14674251110898       -2.17533721121585
C            8.00053261285885       -0.53215458959065       -2.58705477965767
C            6.82528639528381       -0.46938566819000       -1.86392622957817
C            6.81938054247209        0.28993520886435       -0.70227560770050
C            3.39005623877628        0.86553546248139        0.14991240930684
C            2.09819986773638        0.38767011866355        0.07209927134319
C            1.91560075151623       -0.97894955257599       -0.08827926420465
C           -0.90006411484032       -0.13768585299574       -0.99825327922999
C           -2.17558984951180        0.38565620573960       -0.95919977635444
C           -4.81320992646655        1.94896923099666       -0.55385636215914
C           -4.07641687100400        3.01618645529003       -0.02252047512613
C           -3.11422771426342        2.83302241949609        1.11840107308287
C           -4.24361613313665        4.30469077352709       -0.51383063031201
C           -5.12930441227406        4.57838872716515       -1.54069691920132
C           -5.31019742982088        5.96764192797799       -2.07212183887606
C           -5.86528235923570        3.52334184767374       -2.06553012277297
C           -5.72567301767084        2.23254679435901       -1.58714497809972
C           -6.53823096611613        1.13428365139823       -2.20874765544936
C           -6.01619816721159       -1.69543676370154       -0.07512051215752
C           -5.25725447574325       -2.21664866105587       -1.26389911737623
C           -7.01862707469178       -2.50388973248371        0.44573007770129
H           -8.69276979213729       -3.15503999303136        3.14302109483629
H           -9.84040955780874       -2.48046813387216        1.99218919630159
H           -8.91313823486236       -3.92393966624097        1.56574034053568
H           -8.14507752062211       -0.50520729502683        2.89611288995666
H           -6.41128120450893        2.12118058965843        1.45293590491140
H           -7.07053280496066        1.50709726616157        2.97507995550424
H           -5.34306594419854        1.37775293233249        2.63438962526519
H           -3.50814627530565       -1.57994523067571        1.43275941780740
H           -1.22383979373730       -2.48861916533600        1.41144406754204
H           -0.82520406230424       -4.04153171643921       -0.46332995387783
H            0.22144934400379       -6.26583318965320       -0.64186690240732
H            2.65472572692268       -6.52844284087565       -0.57753257344569
H            4.13147683997703       -4.55714006324735       -0.35494536375807
H            5.16427777702707       -2.02993148333635       -0.05030570257420
H            4.57386298281823        1.60800264273246        2.49828943542779
H            5.82213976767254        3.09895337120185        4.01425292686590
H            8.15632140587454        3.68925349028824        3.56856155080117
H            9.33262018371249        2.78098687825346        1.59228397572001
H           10.02404683560593        1.45603284789508       -0.71980376483066
H           10.04577759224376        0.06987261215234       -2.76731184618829
H            8.03196068735880       -1.11849002889331       -3.49379177261692
H            5.93816178861299       -0.98668610408200       -2.19769853816277
H            3.56535565825758        1.92610369336697        0.24927248162672
H            1.25759245972839        1.06139995832851        0.13723422208097
H           -0.16933417867343        0.24613928600780       -1.69523933919633
H           -2.43583400591982        1.19577190804916       -1.62560525191789
H           -3.12845280749644        1.81725043430441        1.50065352026903
H           -2.09986310552523        3.06543726485578        0.79387316329741
H           -3.36552720898523        3.51578917414179        1.92976389613052
H           -3.66548301558795        5.10902858618783       -0.07895737937452
H           -6.32007271368140        6.32205007948491       -1.86599870166898
H           -5.16700059099995        5.98447354221856       -3.15177725164632
H           -4.60281646539714        6.65525504788139       -1.61508794141558
H           -6.56569704887393        3.71955090057659       -2.86609602580629
H           -7.10877071622648        0.60406264315758       -1.44929744991331
H           -7.22767028351777        1.53741341839547       -2.94704989103022
H           -5.89061912391030        0.41093835480998       -2.70175031256186
H           -4.69807663110462       -3.11096959682529       -0.98872947155054
H           -4.56012538863210       -1.48111622470376       -1.65268510266668
H           -5.95223594629576       -2.49305739563059       -2.05657361102650
H           -7.19446001710865       -3.47266479894269       -0.00246075814015
