92
 energy: -130.859400336739 gnorm: 0.000031410157 xtb: 6.7.1 (edcfbbe)
C           -8.35409483115487       -3.48027344744495        0.93476825174098
C           -7.24087693725757       -2.51890481709635        0.64904826597728
C           -7.10471210176500       -1.35557094793776        1.39492263202246
C           -6.09679154679175       -0.44218651133440        1.13719660527267
C           -5.99532716455491        0.78881860304297        1.99011374423155
C           -5.16526443463550       -0.67974013337604        0.11045123289202
B           -3.98155918042939        0.31398185492700       -0.15372077007936
C           -2.52446861794722       -0.25263623840182       -0.15527419062199
C           -2.17549748141874       -1.37364440985966        0.60569964380834
C           -0.88855590839103       -1.87017811239211        0.61968034038899
C            0.09565993356568       -1.27262461813583       -0.16358128865941
N            1.40091944243779       -1.78211609333515       -0.17006940808699
C            1.75180427391749       -3.10462995342631       -0.35615112945732
C            0.94742988816523       -4.20591780292403       -0.61353871107219
C            1.56531307095470       -5.42891775208993       -0.78907911185967
C            2.95074304878998       -5.56208429846670       -0.72161922017653
C            3.75818056119322       -4.46667883930712       -0.49166765774399
C            3.15973519507994       -3.22649370043079       -0.31164879899919
C            3.67527433741679       -1.90618488744099       -0.08451147390327
C            4.95772657967785       -1.40280201105047        0.07152479356964
C            5.11322522917577       -0.04285637602122        0.29518599547505
N            6.40151592513294        0.50077059078897        0.43137681217142
C            6.83881431071656        1.30186517607027        1.46487780006868
C            6.16833913358088        1.71530696697259        2.60759252066851
C            6.85464884458165        2.50820044750380        3.50672400967719
C            8.17952079553595        2.87960864007881        3.28650324803098
C            8.85884046124203        2.45321984240474        2.16312522608381
C            8.19066952097651        1.65488619775072        1.24401053687564
C            8.57768263429356        1.03127218107727        0.01027932710609
C            9.75468483939071        1.01674640102950       -0.72675549554250
C            9.78384289900796        0.31188093645514       -1.91314809613646
C            8.65487397753632       -0.36258779372261       -2.37402161761002
C            7.47288086982966       -0.36347091544572       -1.65921913577848
C            7.44328704370338        0.32654475428936       -0.45542856255136
C            3.99775163510357        0.79816934926473        0.38872529422286
C            2.71496867552836        0.30891767152279        0.25287465394467
C            2.55542027612677       -1.04532400491770       -0.00720157042110
C           -0.22963028476071       -0.16439004372329       -0.94167863085357
C           -1.51337573044825        0.33976469224607       -0.91960491185009
C           -4.18091647248073        1.84651900200803       -0.41871865463049
C           -3.49175982738697        2.80719369865998        0.33518611323631
C           -2.59159979469875        2.42153480032683        1.47637291894693
C           -3.64115643766959        4.15970538680989        0.06116881795354
C           -4.46014971692771        4.60465654996086       -0.96235045360831
C           -4.62497843792167        6.06506633106352       -1.25410073251588
C           -5.14658496432205        3.65545037187831       -1.70826395134548
C           -5.02475589527610        2.30125227756660       -1.44814826949971
C           -5.78155071514097        1.32573849468781       -2.30184072862612
C           -5.30705479067257       -1.85366040596303       -0.64345325623520
C           -4.38038112792163       -2.18018091741142       -1.78186935408849
C           -6.33398590927731       -2.74698728148159       -0.37185040177937
H           -9.30515470049268       -3.06136370418482        0.60469625324324
H           -8.19735420421634       -4.42324906981470        0.41656938762850
H           -8.42961756888452       -3.67388784319965        2.00344714482257
H           -7.80695629625823       -1.15879348663088        2.19372940200939
H           -5.06985601155237        0.78272799731545        2.56418627474127
H           -5.99462848512410        1.68406082410723        1.37217652782143
H           -6.82942396584348        0.84374677757154        2.68589538159398
H           -2.93272807937198       -1.84969379451665        1.21279609876720
H           -0.63238470853123       -2.71554109435963        1.24154530469311
H           -0.12533079675796       -4.11115774768498       -0.68668341212870
H            0.96055241613720       -6.30156458161336       -0.98708269218453
H            3.39449881536003       -6.53637445654224       -0.86170883717320
H            4.83259092157427       -4.56530797853759       -0.45612326903505
H            5.81798554701524       -2.05310158913082        0.03322149379553
H            5.14711191841661        1.41857337498431        2.79440792486329
H            6.35409451846126        2.84519766431758        4.40276070471361
H            8.68015238673314        3.50300067691666        4.01254623459060
H            9.88993258661003        2.72878792838213        1.99968598604182
H           10.62539075748507        1.55052913786807       -0.37638625295284
H           10.68990232676685        0.28598977894934       -2.50033277864603
H            8.70445367803604       -0.89440606523946       -3.31299286728417
H            6.59839699514991       -0.87629572588375       -2.03104802724433
H            4.15470365386332        1.85202345599087        0.56233444868413
H            1.86399612653888        0.96580520390562        0.34776284908636
H            0.52693044044545        0.28653172774151       -1.56721905009734
H           -1.75267742803455        1.20381196949961       -1.52352722690703
H           -1.54841633411944        2.47703575835087        1.16374184112687
H           -2.72538346650148        3.10919080251825        2.31008388787414
H           -2.78700993169327        1.41043758150161        1.82008406086237
H           -3.10329031568035        4.87945240256141        0.66359804932192
H           -4.49679007223408        6.26008653067559       -2.31768302697491
H           -3.90180789781943        6.65756492969174       -0.69898385918891
H           -5.62626281574976        6.39349029221996       -0.97453074960850
H           -5.79441188171768        3.98538760502106       -2.50915317262713
H           -6.38463286295091        0.66350066789613       -1.68462168058120
H           -6.43461272150571        1.84926794138157       -2.99630241988221
H           -5.09485028010649        0.70678047785115       -2.87764518201582
H           -4.94079086476935       -2.60468687885183       -2.61343885628338
H           -3.64522429643578       -2.92018662180958       -1.46405311007802
H           -3.84522007045023       -1.30232356942202       -2.13056703196664
H           -6.42460012534754       -3.64107220479210       -0.97407695406766
