  58
        -86.51510839
 C         -1.1170546777        2.9279924498       -1.2106100743
 C         -1.6036023935        2.0802814766       -0.0050870555
 C         -1.2788668961        2.7397658585        1.3578887836
 C         -3.1147191100        2.0358901886       -0.0657331293
 C         -3.8275324260        3.2252040227       -0.1245464505
 C         -5.2099330154        3.2454310569       -0.1509007889
 C         -5.9127123045        2.0477852897       -0.1163194729
 C         -5.2337738041        0.8536735337       -0.0618335671
 C         -3.8292760502        0.8300374690       -0.0368978182
 N         -3.1554118387       -0.3662715612        0.0076783972
 C         -3.9268208254       -1.5668197749        0.0371609674
 C         -4.3079800459       -2.1724127406       -1.1530284574
 C         -5.0680917601       -3.3282551184       -1.1189731857
 C         -5.4467053273       -3.8764735587        0.0955503270
 C         -5.0648991360       -3.2696906420        1.2807168743
 C         -4.3047578068       -2.1134236598        1.2562548531
 C         -1.7848595275       -0.4620758791        0.0040387313
 C         -1.1997234214       -1.7362364293        0.0230333213
 C          0.1551514480       -1.8887444649        0.0185925546
 C          1.0191447982       -0.7552144893        0.0011835122
 C          2.3880337436       -0.9284791931        0.0085011223
 C          3.3040086588        0.1678473308        0.0147863965
 C          4.7194330349       -0.0230943126        0.0077128266
 C          5.6119428883        0.9902493087        0.4408385462
 C          6.9657828871        0.8064176912        0.4385798428
 C          7.5215720109       -0.4076053030       -0.0129612172
 C          8.9051094500       -0.5980774131       -0.0207191492
 N         10.0486117935       -0.7523888170       -0.0281699715
 C          6.6536006457       -1.4257197373       -0.4539189993
 C          5.2999945698       -1.2393636430       -0.4342388256
 C          2.7183087204        1.4474784199        0.0126395752
 C          1.3673556696        1.6410941967       -0.0139008903
 C          0.4297471396        0.5537945248       -0.0132931262
 C         -0.9585593292        0.7096976354       -0.0199298629
 H         -0.7683127007        3.9071780176       -0.8923934304
 H         -1.9328828144        3.0746433243       -1.9154871970
 H         -0.3154491717        2.4278906226       -1.7448909574
 H         -0.2161383779        2.7193576371        1.5729824930
 H         -1.6257761850        3.7693692449        1.3776748253
 H         -1.7901189060        2.1939517740        2.1496757290
 H         -3.2907353749        4.1609461935       -0.1556143810
 H         -5.7362703779        4.1857756690       -0.1964254015
 H         -6.9916521665        2.0494824808       -0.1324502226
 H         -5.7830137235       -0.0745983394       -0.0374398534
 H         -4.0051990359       -1.7345175144       -2.0926938309
 H         -5.3640884024       -3.7999290770       -2.0435550003
 H         -6.0399349463       -4.7777290529        0.1183419853
 H         -5.3589615109       -3.6952281415        2.2280160521
 H         -4.0001668120       -1.6303411229        2.1729120134
 H         -1.8330592396       -2.6093731039        0.0411032998
 H          0.5933688181       -2.8744398956        0.0323432667
 H          2.7684386427       -1.9364088050        0.0526712621
 H          5.2160101233        1.9192248151        0.8218959577
 H          7.6273897410        1.5862223442        0.7876700384
 H          7.0758643337       -2.3542857000       -0.8108313241
 H          4.6619631284       -2.0263807876       -0.8046306855
 H          3.3549356749        2.3195970571       -0.0125421844
 H          1.0173325679        2.6563081725       -0.0479012296
  58
        -86.51502636
 C         -1.1009232955        2.9562021046       -1.0877680810
 C         -1.6051259331        2.0816255339        0.0907543302
 C         -1.3009933880        2.7114304139        1.4730519098
 C         -3.1150921620        2.0381183210        0.0046228236
 C         -3.8274093336        3.2284309808       -0.0408004264
 C         -5.2085645635        3.2491052645       -0.1012547155
 C         -5.9105544468        2.0506712887       -0.1220724864
 C         -5.2321124586        0.8558253973       -0.0816107639
 C         -3.8291947140        0.8317557023       -0.0119353596
 N         -3.1561107949       -0.3652358105        0.0252495531
 C         -3.9251105474       -1.5665180377       -0.0202111578
 C         -4.1696621209       -2.1817462974       -1.2411931812
 C         -4.9257110566       -3.3397831316       -1.2840086431
 C         -5.4364278802       -3.8806530279       -0.1151817371
 C         -5.1913451871       -3.2640287465        1.1008818429
 C         -4.4356496641       -2.1057551992        1.1532569243
 C         -1.7857445538       -0.4604465379        0.0593683947
 C         -1.2009063343       -1.7345286573        0.0921271479
 C          0.1539120722       -1.8870505353        0.0999608250
 C          1.0179692372       -0.7536931647        0.0755523025
 C          2.3866410992       -0.9277269912        0.0586997549
 C          3.3025495591        0.1680192100        0.0269485803
 C          4.7176709078       -0.0233683946       -0.0015551151
 C          5.5964958960        0.9867154956       -0.4690619025
 C          6.9496822287        0.8017920335       -0.5086006634
 C          7.5186625256       -0.4098163253       -0.0673446007
 C          8.9012213569       -0.6033376925       -0.1053569275
 N         10.0440564531       -0.7603459095       -0.1336280335
 C          6.6647384149       -1.4234147123        0.4098467675
 C          5.3111799731       -1.2364377934        0.4315214599
 C          2.7177192643        1.4481031080        0.0403091753
 C          1.3671513019        1.6424554007        0.0750566200
 C          0.4288518338        0.5555322117        0.0709324568
 C         -0.9594206554        0.7115617561        0.0601231808
 H         -0.2924509223        2.4673048218       -1.6220739356
 H         -0.7543778112        3.9265602328       -0.7414224022
 H         -1.9063939355        3.1217955940       -1.8003317595
 H         -1.8289133561        2.1528292624        2.2438757296
 H         -0.2430877891        2.6813987366        1.7071212174
 H         -1.6426723326        3.7418173603        1.5076031526
 H         -3.2907589910        4.1647707505       -0.0349978102
 H         -5.7346365321        4.1901890887       -0.1347122248
 H         -6.9884031717        2.0522702633       -0.1729067677
 H         -5.7805101613       -0.0728815898       -0.1049569452
 H         -3.7640005703       -1.7498681642       -2.1439722280
 H         -5.1151787186       -3.8187836800       -2.2322762726
 H         -6.0260622649       -4.7837895648       -0.1522962203
 H         -5.5883626043       -3.6843389991        2.0128148651
 H         -4.2372456574       -1.6146128625        2.0947765559
 H         -1.8342502915       -2.6075568688        0.1112443729
 H          0.5920125296       -2.8725451573        0.1250674252
 H          2.7660826014       -1.9365642365        0.0282066745
 H          5.1883404046        1.9129522551       -0.8437031361
 H          7.6000058993        1.5779413480       -0.8860473640
 H          7.0978170529       -2.3493148205        0.7605122111
 H          4.6848725117       -2.0198322252        0.8286755219
 H          3.3555632696        2.3191291639        0.0678499982
 H          1.0174493792        2.6576861463        0.1127680165
  58
        -86.51494476
 C         -1.1766610967        2.9855786186       -1.1951705753
 C         -1.6022192402        2.0833883308       -0.0064686603
 C         -1.2087262550        2.6807863422        1.3674105013
 C         -3.1143726218        2.0391011236        0.0139279695
 C         -3.8279323948        3.2288088795        0.0539818932
 C         -5.2082870896        3.2479653894        0.1323532791
 C         -5.9074512077        2.0488046211        0.1823383910
 C         -5.2282511677        0.8544529172        0.1355194341
 C         -3.8269190848        0.8318641174        0.0396571413
 N         -3.1536027414       -0.3638911077       -0.0291634914
 C         -3.9182090006       -1.5678711923        0.0104555808
 C         -4.5023642638       -2.0561565216       -1.1512705733
 C         -5.2509024277       -3.2191198575       -1.1034361302
 C         -5.4164209461       -3.8913533247        0.0964010555
 C         -4.8331036764       -3.4011388326        1.2532793856
 C         -4.0832550486       -2.2387582721        1.2149559639
 C         -1.7864273759       -0.4555660214       -0.1320627672
 C         -1.2048582028       -1.7251981664       -0.2617327007
 C          0.1490405628       -1.8770052836       -0.3120895666
 C          1.0149345566       -0.7472177888       -0.2355452518
 C          2.3832801509       -0.9224172040       -0.2258371349
 C          3.3003643961        0.1714685716       -0.1612523496
 C          4.7123911240       -0.0246321841       -0.0758520844
 C          5.6348567494        0.9960135320       -0.4198206400
 C          6.9846659554        0.8104530592       -0.3188691354
 C          7.5053465472       -0.4133718061        0.1477002803
 C          8.8842121484       -0.6027712183        0.2644788489
 N         10.0230464531       -0.7597322422        0.3650239083
 C          6.6071071320       -1.4413239367        0.4952936793
 C          5.2588615442       -1.2528694975        0.3770474301
 C          2.7167897170        1.4523519400       -0.1636468788
 C          1.3658903129        1.6476137855       -0.1619086733
 C          0.4272070648        0.5611161310       -0.1710168846
 C         -0.9600769859        0.7160789010       -0.1181572064
 H         -2.0259738192        3.1599793444       -1.8528644253
 H         -0.4005457686        2.5126663139       -1.7889322705
 H         -0.8144471072        3.9510418195       -0.8508258824
 H         -0.1369811408        2.6498541985        1.5297827706
 H         -1.5510008432        3.7088249738        1.4504819107
 H         -1.6825237763        2.1005850794        2.1580393306
 H         -3.2933257621        4.1657610176        0.0227954456
 H         -5.7353338733        4.1885464924        0.1630654421
 H         -6.9839171724        2.0494097526        0.2576381160
 H         -5.7749779037       -0.0747111185        0.1750408690
 H         -4.3646821220       -1.5225518114       -2.0801211125
 H         -5.7049770859       -3.5990824109       -2.0058652555
 H         -6.0010196542       -4.7979136613        0.1300310455
 H         -4.9605995516       -3.9234531012        2.1891966837
 H         -3.6192945487       -1.8482130388        2.1086941601
 H         -1.8399886019       -2.5954263475       -0.3172892232
 H          0.5851997353       -2.8592875162       -0.4057270869
 H          2.7639250173       -1.9283786069       -0.3031338913
 H          5.2690609683        1.9339887103       -0.8083543853
 H          7.6705734990        1.5966277103       -0.6006607986
 H          7.0013558458       -2.3785442064        0.8616659975
 H          4.5950252756       -2.0476011230        0.6793831168
 H          3.3532342155        2.3234441026       -0.1167644085
 H          1.0161878099        2.6633450129       -0.1464911572
  58
        -86.51472647
 C         -1.2030669372        2.8286253592       -1.3253708381
 C         -1.6062720878        2.0838787245       -0.0273759038
 C         -1.2210411206        2.8415347012        1.2672981712
 C         -3.1193943927        2.0399992212       -0.0344384533
 C         -3.8371095095        3.2274980861       -0.0598760140
 C         -5.2195739073        3.2432983923       -0.0706106437
 C         -5.9186700152        2.0431399553       -0.0627577978
 C         -5.2354670064        0.8506544401       -0.0409714437
 C         -3.8308133016        0.8315155384       -0.0212085224
 N         -3.1540636993       -0.3637562049        0.0049426172
 C         -3.9228629601       -1.5662165742        0.0204405771
 C         -4.2254557103       -2.2077713863       -1.1737984437
 C         -4.9817880806       -3.3663046074       -1.1542547589
 C         -5.4354510880       -3.8808045979        0.0496378337
 C         -5.1326426517       -3.2379151808        1.2385343345
 C         -4.3758371209       -2.0791439083        1.2287741375
 C         -1.7833461527       -0.4576394819        0.0161378502
 C         -1.1977905184       -1.7310151045        0.0589497438
 C          0.1570048603       -1.8822886801        0.0655044842
 C          1.0201939927       -0.7484011742        0.0332628585
 C          2.3889113231       -0.9236910992        0.0421421454
 C          3.3063368109        0.1707653344        0.0316365301
 C          4.7215863815       -0.0229866839        0.0193795512
 C          5.6181610120        0.9900653735        0.4441143763
 C          6.9716927397        0.8040864720        0.4337432280
 C          7.5219208665       -0.4121447003       -0.0180166305
 C          8.9049418530       -0.6065780808       -0.0348876856
 N         10.0461712586       -0.7726667561       -0.0499367957
 C          6.6493533451       -1.4309141078       -0.4494582813
 C          5.2960269003       -1.2424625258       -0.4213035019
 C          2.7230003142        1.4509306929        0.0162864320
 C          1.3723207561        1.6466755231       -0.0109450670
 C          0.4311714782        0.5607242755        0.0020186178
 C         -0.9581111479        0.7151361110       -0.0075238433
 H         -1.2503380825        3.9056057951       -1.1881362551
 H         -1.8953959364        2.5580791388       -2.1214672213
 H         -0.2064615316        2.5616712862       -1.6584747640
 H         -0.1918537344        2.6625477360        1.5566255066
 H         -1.3718636593        3.9115453770        1.1516458240
 H         -1.8560781128        2.4960088963        2.0823150445
 H         -3.3072532282        4.1666342614       -0.0738765988
 H         -5.7496191235        4.1825502083       -0.0877783908
 H         -6.9975979744        2.0418310187       -0.0754902389
 H         -5.7809016468       -0.0801270171       -0.0396576461
 H         -3.8638676126       -1.7952331743       -2.1042824432
 H         -5.2170084247       -3.8668423124       -2.0811930227
 H         -6.0256026401       -4.7843453631        0.0606117672
 H         -5.4853543922       -3.6371643156        2.1773040470
 H         -4.1319865869       -1.5675965274        2.1482683879
 H         -1.8305683549       -2.6043036329        0.0881371971
 H          0.5962716092       -2.8670459480        0.0984398878
 H          2.7681941078       -1.9314378195        0.1007370922
 H          5.2251187726        1.9203690530        0.8244760859
 H          7.6367630834        1.5837998045        0.7769975920
 H          7.0684470673       -2.3617334443       -0.8049121260
 H          4.6535352427       -2.0299899258       -0.7835467881
 H          3.3615182072        2.3210101514       -0.0229259331
 H          1.0280155094        2.6639496542       -0.0546993369
