  70
       -106.57797178
 C          0.6637627141        4.7754399846        0.0840808381
 C         -0.5396490446        4.0792693900        0.0962256106
 C         -0.5281226238        2.6778193988       -0.0003835400
 C         -1.7887831087        1.9254276996        0.0050300660
 C         -2.9021203710        2.3890819212       -0.6948143877
 C         -4.0829244987        1.6757967842       -0.7044290559
 C         -4.1840247052        0.4812839285        0.0043361435
 N         -5.3802090544       -0.2476995036       -0.0023660392
 C         -6.6382056574        0.2574481575        0.2564739297
 C         -7.0172541424        1.5408327886        0.6246490438
 C         -8.3598055492        1.7763748937        0.8522623507
 C         -9.3074462337        0.7631182000        0.7282554159
 C         -8.9332187813       -0.5221607010        0.3870143721
 C         -7.5905791428       -0.7831187393        0.1525811333
 C         -6.8598904975       -1.9714836294       -0.1922877525
 C         -7.2345607051       -3.2837701113       -0.4440542664
 C         -6.2555219792       -4.1980642093       -0.7818280410
 C         -4.9208243894       -3.8134438886       -0.8853877080
 C         -4.5234675271       -2.5129060122       -0.6398777139
 C         -5.4990513270       -1.5955721652       -0.2749566247
 C         -3.0826054089        0.0157910834        0.7186266374
 C         -1.9013136181        0.7275109833        0.7107010021
 C          0.6760129853        2.0145774391       -0.1070603704
 C          1.9168714092        2.6969539219       -0.1389858954
 C          3.1548745090        2.0110710367       -0.2635954283
 C          4.3528735261        2.6783528452       -0.6768116893
 C          5.5408559814        2.0388252754       -0.7245532357
 C          5.6884615392        0.6586349679       -0.3408022048
 C          6.9301271042        0.0513782200       -0.1314704985
 C          8.1562717819        0.7789294435       -0.2242812896
 C          9.3568599328        0.2057106915        0.0693723129
 C          9.4144857216       -1.1322689443        0.4828523935
 C          8.2521080498       -1.8754357167        0.5590664587
 C          7.0074479499       -1.3393104288        0.2450713054
 C          5.7978720256       -2.1364540491        0.2595458431
 C          5.8355151686       -3.5283381943        0.4129032553
 C          4.6855734421       -4.2940521844        0.3962370618
 C          3.4597113129       -3.6863463805        0.2000118063
 C          3.3982081781       -2.3132876672        0.0326645969
 C          4.5414405604       -1.5163773024        0.0792706536
 C          4.4642273081       -0.0715890710       -0.1004424482
 C          3.2784387276        0.6077902965       -0.0245180589
 C          1.8610560404        4.1167545504       -0.0350617563
 H          0.6530544126        5.8523792928        0.1754984990
 H         -1.4746068245        4.6059538024        0.2074848049
 H         -2.8289274638        3.3033061317       -1.2647224324
 H         -4.9277163219        2.0267743585       -1.2781271918
 H         -6.2880414240        2.3279655208        0.7421420697
 H         -8.6806450198        2.7673946183        1.1366790361
 H        -10.3472849524        0.9878154231        0.9122165781
 H         -9.6657117253       -1.3110807956        0.3074606306
 H         -8.2710788804       -3.5784622947       -0.3807111795
 H         -6.5255169527       -5.2248284725       -0.9790150344
 H         -4.1801156916       -4.5469791152       -1.1677138569
 H         -3.4895362270       -2.2200053533       -0.7419979121
 H         -3.1681256851       -0.8940359865        1.2939847657
 H         -1.0601359186        0.3682006298        1.2849995479
 H          0.6566025335        0.9438364114       -0.2367471778
 H          4.2964442448        3.7061186378       -1.0006174627
 H          6.4063912136        2.5782680232       -1.0747683645
 H          8.1327235789        1.8160619993       -0.5159918425
 H         10.2676918696        0.7823821470       -0.0023036784
 H         10.3625304598       -1.5795474752        0.7397131816
 H          8.3309354483       -2.9002386483        0.8862593543
 H          6.7798283135       -4.0338380293        0.5337938673
 H          4.7509184908       -5.3648614299        0.5221724111
 H          2.5548256573       -4.2748588463        0.1664957406
 H          2.4354605180       -1.8650979959       -0.1561741039
 H          2.3912936845        0.0732926853        0.2700260612
 H          2.7769211223        4.6849255935       -0.0091000193
