60
 energy: -108.030146720994 gnorm: 0.000043555424 xtb: 6.7.1 (edcfbbe)
O            6.57913257193883       -0.04634949807054       -1.38660616032000
C            5.74220115089203       -0.91495859486408       -1.39994909139781
O            6.06573156536480       -2.21238968634770       -1.26757975795848
C            4.29149146202985       -0.68314642931524       -1.55647047202936
C            3.37540469594915       -1.73188435903243       -1.55638432034460
C            2.02748643929799       -1.47022231628038       -1.70220978458320
C            1.56583860732783       -0.16485124608913       -1.84386907466553
C            0.09905168777012        0.12641052317713       -1.96871509645868
C           -0.62793799496802        0.16804286512296       -0.59270376801469
C           -0.71041356506055       -1.20325125310038        0.06681785603701
C           -1.08201360004186       -2.31703997038444       -0.68472733153562
C           -1.22212297137201       -3.55761350157526       -0.09921404472103
C           -1.01488115474799       -3.71637568734635        1.26857125976836
C           -1.16495428762236       -5.06271600214249        1.85878874084293
O           -1.43794336182427       -6.05804866526419        1.23466428111769
O           -0.96517930020379       -5.08900324208775        3.18654243224153
C           -0.69512519855656       -2.60259303786736        2.03760681047872
C           -0.55528660368315       -1.36441850265281        1.44133821124128
C            0.13417935778625        1.20229183280349        0.21921138945826
C            1.32408300550155        0.87056765187179        0.86491281398191
C            2.06964036128819        1.83155391540897        1.51823005419719
C            1.64428503410047        3.15668495877128        1.52688031313895
C            2.41298244639426        4.22098467342589        2.20652617359373
O            2.10282218679544        5.38653890316147        2.22221356115453
O            3.51672473586798        3.77054782284288        2.82326168312802
C            0.46884337460372        3.50032224066890        0.86437524919019
C           -0.27128843061394        2.53381879899881        0.21404321755287
C           -2.09558215357543        0.56184796519252       -0.73374137306621
C           -2.82290870897629        0.79637665411640        0.43393865153962
C           -4.16201318086176        1.11981791438790        0.39128153224661
C           -4.81434646707344        1.21000492420627       -0.83629567685882
C           -6.24840439568926        1.55318174622316       -0.93932489716233
O           -6.85797437337571        1.64556863593506       -1.97592047580164
O           -6.83421418707909        1.76060232118092        0.25078741773852
C           -4.09921328545686        0.97096019953532       -2.00495955005383
C           -2.75607592299839        0.64904133207400       -1.95348448399387
C            2.48969109425209        0.87707992388044       -1.85588923482651
C            3.83813332489465        0.62488635545104       -1.71370067847398
H            7.02684504842922       -2.29892687608259       -1.17175777201915
H            3.72608544838432       -2.74557091270123       -1.44320043178269
H            1.32514938198246       -2.29032129937358       -1.70042336123758
H           -0.02959656869326        1.10586061881161       -2.43407067742670
H           -0.35733829449386       -0.62642688368736       -2.60977578523814
H           -1.28269362368105       -2.22166056383263       -1.74075221549148
H           -1.49922514748149       -4.42061704096618       -0.68538384909704
H           -1.07740947678648       -5.99473808169695        3.51443467331809
H           -0.56109111674860       -2.71050638625550        3.10234945702115
H           -0.32278050967372       -0.51442851110965        2.06436754158645
H            1.67779006478516       -0.14922967744702        0.85434232897473
H            2.98835708950771        1.56204470109794        2.01424526579777
H            3.98219485449605        4.51125688424900        3.24178622385390
H            0.15542421420458        4.53309343366225        0.86521450406423
H           -1.17340832576407        2.81962584076231       -0.30632184019007
H           -2.32511292568669        0.73006322882618        1.38948146454203
H           -4.70990672234141        1.30318417211837        1.30177416139257
H           -7.76937772437216        1.98123927354634        0.11935032049022
H           -4.61422875535914        1.04316937870798       -2.95084989696474
H           -2.23594360729985        0.47542841552883       -2.88140608032983
H            2.14496014341697        1.89407119251720       -1.97480541477345
H            4.56010421885821        1.42692741843969       -1.71922678236843
