60
 energy: -107.933451467425 gnorm: 0.000143627329 xtb: 6.7.1 (edcfbbe)
O            6.41908564089225        0.49781403893328        1.56502898742916
C            5.65797134557915       -0.43349079682401        1.47660068697942
O            6.08626868623547       -1.67855119322248        1.21433818796829
C            4.19117681206323       -0.33792136245759        1.63769749167218
C            3.63320630088554        0.90546729366421        1.92632835005355
C            2.26801549234747        1.03324437817942        2.07875563635170
C            1.43697826550814       -0.07398293616024        1.94756652988232
C           -0.05763157137517        0.06999635993840        2.05565264992924
C           -0.67209637685294        0.10569096211364        0.65951422671572
C           -2.18879388536625       -0.06520984853392        0.47780376705786
C           -3.02006448844073       -0.35083040737314        1.64701233224147
C           -4.28592388019958        0.11731544806189        1.76106244128927
C           -4.88332317144599        0.89823797627753        0.74701333200074
C           -6.25619563881271        1.35568702879587        0.91956903134112
O           -6.94648593897529        1.12488178872765        1.88915816500107
O           -6.71953034624125        2.08541040572459       -0.11914645969854
C           -4.11880097237223        1.20539930514434       -0.39916024837889
C           -2.84896204959680        0.75361285130735       -0.54061854075091
C            0.02397497900836        1.14388610607447       -0.15729981122132
C           -0.37027147676956        2.47577269115401       -0.05538426661566
C            0.32094063514680        3.46039002594621       -0.73003988840272
C            1.42605207268083        3.12934990943676       -1.51133588592208
C            2.14732736982683        4.21691917860411       -2.20973224637700
O            1.84971424735602        5.38358438461051       -2.14640224332706
O            3.18658519530969        3.78387126014215       -2.93840934095774
C            1.82681849708686        1.79985832590655       -1.61135915001079
C            1.12999169042686        0.81716274339530       -0.93727241554011
C           -1.16212802810448       -1.18019177568088       -0.02127514417479
C           -0.93693017166121       -1.31142962005909       -1.46262658914197
C           -0.63856336385519       -2.49713448527032       -2.04700561835143
C           -0.55753027638982       -3.68791342977756       -1.29295942812763
C           -0.24030526470196       -4.97717262350517       -1.89268670825060
O           -0.15449322096313       -6.02194738414825       -1.28326938074417
O           -0.03720045248740       -4.91996909780039       -3.22761307263761
C           -0.81854536978858       -3.62051332125958        0.09357477203507
C           -1.11755927912539       -2.44995389578002        0.70610083945977
C            1.99903585436783       -1.31438865468149        1.66309042087165
C            3.36429029895059       -1.45105463533062        1.50954495236825
H            7.05176948832814       -1.67881030144278        1.12271874573789
H            4.28827013347017        1.75738994681003        2.02457004579994
H            1.84006513931026        2.00074499318819        2.29727845791724
H           -0.45662044306523       -0.74893055503270        2.64987933584391
H           -0.30343027254769        1.00976220405411        2.55729395628239
H           -2.61137298640002       -0.93768616865056        2.45165914458683
H           -4.87768354099460       -0.10223121911373        2.63697842709429
H           -7.63315278054171        2.35066062853623        0.06435229947475
H           -4.56665327645386        1.81102004566594       -1.17139681040089
H           -2.29101821782827        1.02453500173772       -1.42155837792988
H           -1.22549331899910        2.73196133726348        0.55317399304666
H            0.02500198672214        4.49612301524278       -0.66291399938241
H            3.62462821770171        4.53712801883925       -3.36437784881082
H            2.68528012900522        1.54521364184688       -2.21189436206192
H            1.44576899545959       -0.21302520117067       -1.00839502091028
H           -0.98527825780460       -0.42472973238176       -2.07224742002225
H           -0.46488934357578       -2.54751081690313       -3.11052436857711
H            0.16365136181958       -5.80972894765863       -3.55422622399945
H           -0.78191967327223       -4.54262125822282        0.65447211730781
H           -1.33219814606385       -2.45932962764773        1.76136354858640
H            1.35950259882414       -2.17852028829540        1.55448261346655
H            3.79630080280887       -2.41424190879345        1.28879498125519
