70
 energy: -106.642549260085 gnorm: 0.000037814048 xtb: 6.7.1 (edcfbbe)
C            9.87128726265584        0.32558918361416       -0.40649635008487
C            9.25786236504818        1.08135722558042       -1.41736403941031
C            7.89467319649221        1.14105799318330       -1.50633890643844
C            7.08011131329151        0.44405620239465       -0.58611033283272
C            5.67664851505560        0.48987736300571       -0.65059127927521
C            4.88567382124455       -0.20699440684630        0.24477272925638
C            3.43031491313964       -0.16037471554984        0.17742770541457
C            2.74862698284313        1.09509896912436        0.20510316064469
C            3.43505098248246        2.30453945665486        0.35617148531786
C            2.77647277972684        3.52967662782953        0.29726431662054
C            1.41532923072275        3.56561478450574        0.07859054823508
C            0.69857025880163        2.37541746755100       -0.01466212446419
C            1.32470743386272        1.13072838823539        0.10571845177360
C            0.58041884919976       -0.09029601086653        0.09731371667263
C           -0.87416849635890       -0.05400364249416        0.06091229256755
C           -1.59093806927317       -0.75320572292581       -0.92000414350987
C           -2.96662873188375       -0.70955387718023       -0.96635700764305
C           -3.68104152194822        0.01809150634654       -0.01415460551117
N           -5.07975522310652        0.05387397964232       -0.05107434271272
C           -5.91354218573992       -1.04302225706843       -0.15051375430473
C           -5.59667893415114       -2.39389946137327       -0.19126494406544
C           -6.63788140491252       -3.29993935656417       -0.26396880985195
C           -7.96655280214516       -2.88081837468372       -0.28605867929935
C           -8.28923801147435       -1.53922895766044       -0.21967449985483
C           -7.26001400604386       -0.60987715174244       -0.14596468136153
C           -7.22707794413853        0.82314884180485       -0.04236622625864
C           -8.21207206287462        1.80135255304521       -0.00735890573932
C           -7.82749248719542        3.12566755702552        0.07409996121121
C           -6.48018621476449        3.47966058065235        0.10531499570433
C           -5.48209060810551        2.52413453065623        0.07250827102664
C           -5.86230959349041        1.19017261973696        0.01692535770357
C           -2.98219426055264        0.70870081157079        0.97634049153158
C           -1.60550855127378        0.68166611598783        1.00362767549592
C            1.26178630882283       -1.34658476019564        0.12017601855409
C            0.57231410204100       -2.56070450263214        0.20268428291402
C            1.23660624340638       -3.78272411683271        0.13587853084973
C            2.60638287165750       -3.81060615780400       -0.02191370461682
C            3.32441586454384       -2.61775099150896       -0.03730372412249
C            2.68846847143939       -1.37883892276649        0.09519249458641
C            5.52365566362032       -0.97693129297762        1.25050990661429
C            6.88180144024166       -1.02299748757012        1.34786939854674
C            7.70391931565225       -0.32412965767678        0.43382603257149
C            9.10895673423168       -0.36212099422216        0.50028009954442
H           10.94977271176167        0.29029047831760       -0.35039850614791
H            9.87379013832889        1.61636059384321       -2.12616858849820
H            7.41812051522026        1.72365447852566       -2.28242618836447
H            5.21176263025148        1.05624671250475       -1.44584902412312
H            4.50057841090732        2.29135280382374        0.52727493928798
H            3.34020257944088        4.44417545506406        0.40934814155849
H            0.89687954233658        4.50922862974235       -0.00821064739402
H           -0.36506560898246        2.41927675888632       -0.19162276945059
H           -1.04809198167638       -1.29566326061059       -1.68026150592463
H           -3.49974782151485       -1.21889294248018       -1.75548038761177
H           -4.57161898223521       -2.73028422439966       -0.15608833446921
H           -6.41650380030814       -4.35675807145863       -0.29980300466947
H           -8.75251346909342       -3.61937559896295       -0.34605954708530
H           -9.31960589867323       -1.21619301501076       -0.21946634892627
H           -9.25606906891296        1.52860072464100       -0.04843889035967
H           -8.57828831051515        3.90166650818983        0.10468644823281
H           -6.20951844049918        4.52454758538180        0.15184358599998
H           -4.44135619232380        2.81058112748878        0.07926634165153
H           -3.53034630975109        1.24595368287925        1.73615378870758
H           -1.07721954902339        1.19711567403336        1.79230961973415
H           -0.49953599390266       -2.55521333041346        0.32778058965633
H            0.67100430908527       -4.70124517664535        0.19238995595429
H            3.13045178431166       -4.75022625941211       -0.11757109808395
H            4.39649751596497       -2.65364912871140       -0.15667785393870
H            4.90669188177903       -1.49880435572761        1.96830987145359
H            7.35300782757446       -1.59472550516293        2.13546506261672
H            9.57732057081041       -0.94667080815670        1.28004951799059
