70
 energy: -106.710477564419 gnorm: 0.000070382512 xtb: 6.7.1 (edcfbbe)
C            9.85720009933659        0.10129341421002       -0.55717469190869
C            9.22993721646746        0.38612896144470       -1.78101823006233
C            7.86621362113587        0.41129247708662       -1.86918043808737
C            7.06592207306334        0.15355592735211       -0.73561333926269
C            5.65787589076257        0.17437659308106       -0.79435814303926
C            4.89468766397197       -0.07633269352035        0.31913868072780
C            3.41747740491026       -0.05327333115239        0.25151628115521
C            2.74353020244245        1.16036572261214        0.05045332316053
C            3.43857115570989        2.39362332176889       -0.06586480349361
C            2.77491989042444        3.56154770428006       -0.28461480911433
C            1.37031713082694        3.56997251855503       -0.40366831225302
C            0.66457577231555        2.41357400768475       -0.27507107842078
C            1.31537269446130        1.17615306860331       -0.02484692858635
C            0.59482035133624       -0.01600207884628        0.13354730987403
C           -0.88307277697554        0.00239617566439        0.07443294780228
C           -1.55471288591008       -0.54374290358812       -1.01569697657288
C           -2.93489818858199       -0.52995777763207       -1.07325306721518
C           -3.67131028292974        0.01946721843809       -0.02760421773546
N           -5.07440227709224        0.01919401062203       -0.07502009422334
C           -5.87222487420178       -1.08241174961597       -0.30982139298167
C           -5.51198195108349       -2.40747273704197       -0.51284294041641
C           -6.52310968238755       -3.32969041267829       -0.70342774709544
C           -7.86465230722578       -2.95225629363035       -0.68659131723152
C           -8.23016824364351       -1.63972380679908       -0.46243881966460
C           -7.23159298164421       -0.69368896887150       -0.26762181919258
C           -7.24361130656888        0.71676042722490        0.00375935517385
C           -8.25774923822470        1.65546566387061        0.14651654064608
C           -7.91385845216949        2.97005615360739        0.39186185363532
C           -6.57770478852902        3.35681611514909        0.47976298224278
C           -5.55132428907660        2.44202297244576        0.34171155965750
C           -5.89101043975963        1.11482408361979        0.11816591945486
C           -3.00654531102609        0.56538869075224        1.06672915165191
C           -1.62574961063137        0.56190515265162        1.11036490519291
C            1.26746347048238       -1.22702247757203        0.35022264269668
C            0.56706803958925       -2.44705302079875        0.54563764031377
C            1.23013501161120       -3.62059698095979        0.73309977314696
C            2.63939316315623       -3.64862737756343        0.72943776642307
C            3.34820581415360       -2.49831225843839        0.56593776369323
C            2.69652507858086       -1.24804981180544        0.39381815972158
C            5.53374161883851       -0.35925455260971        1.54603006699290
C            6.89588057791580       -0.38490245028590        1.63387321689639
C            7.70049644246977       -0.13204912211077        0.50211326267349
C            9.10962157868993       -0.15202137522054        0.55911156823472
H           10.93647166349544        0.08472033525468       -0.50675781826507
H            9.83657044954782        0.58507924518476       -2.65291518935663
H            7.37871701665558        0.62994384262426       -2.80906802266436
H            5.17764251723089        0.38691983905823       -1.73981755726965
H            4.51474857845422        2.38940176703624        0.02390873414474
H            3.31945688797571        4.49077167418462       -0.37070197423502
H            0.86054776411582        4.50339651762414       -0.59438966498009
H           -0.41172454643540        2.41992496190959       -0.36410858251225
H           -0.98585440351932       -0.97097781240020       -1.82884001970222
H           -3.44907623020464       -0.93549303412822       -1.93199233464836
H           -4.47618127160709       -2.71226079471169       -0.51292480676666
H           -6.26830594985909       -4.36698468560956       -0.86624347458525
H           -8.62618735365287       -3.70246773963774       -0.84234839530625
H           -9.27043381147789       -1.35101012937860       -0.43471605777978
H           -9.29299644849083        1.35938289134370        0.06366757842222
H           -8.68789712290480        3.71451398314281        0.50876511566547
H           -6.33929168151282        4.39552028381253        0.65772414244509
H           -4.51907785083934        2.75388484395172        0.39692900170516
H           -3.57720966382357        0.97873570982695        1.88509636729839
H           -1.11265699413709        0.98336050474869        1.96275093508545
H           -0.51272434529370       -2.42647925929872        0.54553134807038
H            0.68243616681779       -4.54005351552925        0.88174191814894
H            3.15087126203844       -4.59131953422420        0.86039163428895
H            4.42793277978850       -2.52168675892948        0.56299670205097
H            4.92284342857324       -0.54958802071004        2.41718263528197
H            7.37877575419169       -0.59967573484835        2.57705380985324
H            9.58783517884853       -0.37115650799145        1.50370403035639
