  60
        -91.69173965
 C         -2.2743741232        3.4037528551       -1.5882130009
 C         -0.9325931783        3.1879567580       -1.4014505832
 C         -0.4477436887        1.9910964898       -0.8005411454
 C          0.9389143593        1.7387337870       -0.6247135169
 C          1.9246493061        2.7742820104       -0.6789375861
 C          3.2304655088        2.5195636462       -0.4439075018
 C          3.7195991551        1.1997180971       -0.1460075450
 C          5.0228389363        0.9486341564        0.2981587550
 C          5.9589538433        1.9983638677        0.5448912847
 C          7.1909882974        1.7545644477        1.0739090143
 C          7.5699765745        0.4452279638        1.3984207591
 C          6.7039416601       -0.6001531327        1.1420169031
 C          5.4484938031       -0.4007322989        0.5765014326
 C          4.5725747721       -1.5038980036        0.2373146545
 C          5.0143853006       -2.8324671285        0.2793413535
 C          4.1894158836       -3.8852484113       -0.0664348501
 C          2.8968797617       -3.6337524449       -0.4874173345
 C          2.4427387965       -2.3277810794       -0.5532404459
 C          3.2480139475       -1.2508682456       -0.1830669621
 C          2.7634290036        0.1222626396       -0.2597008791
 C          1.4372127036        0.4153226191       -0.4286988424
 C         -1.4262893944        1.0569181822       -0.3781324078
 C         -2.7696471606        1.2841376759       -0.5695430184
 N         -3.7040387172        0.3209773133       -0.1580474940
 C         -4.8340280477        0.5603438399        0.5934451068
 C         -5.2857633364        1.7469546742        1.1554129416
 C         -6.4557826914        1.7076794960        1.8897620852
 C         -7.1578728998        0.5190966101        2.0758538574
 C         -6.6982580901       -0.6705285299        1.5423485360
 C         -5.5270160444       -0.6561848798        0.7994274248
 C         -4.7640088734       -1.6760089507        0.1326992515
 C         -4.9339799476       -3.0431239328       -0.0307502280
 C         -3.9967968754       -3.7432990480       -0.7669406892
 C         -2.9121922413       -3.0930126607       -1.3508664509
 C         -2.7222595290       -1.7323104835       -1.2027498111
 C         -3.6454589623       -1.0273560359       -0.4418788898
 C         -3.2171940146        2.4609466824       -1.1897785576
 H         -2.6093967258        4.3129542366       -2.0663038591
 H         -0.2313021908        3.9248424578       -1.7581063089
 H          1.6153526400        3.7897442877       -0.8715590627
 H          3.9297278893        3.3393439710       -0.4798348277
 H          5.6808530691        3.0162488632        0.3261660318
 H          7.8755905951        2.5700175975        1.2573649690
 H          8.5347237859        0.2546345112        1.8431265481
 H          7.0243192724       -1.5958117089        1.4057868893
 H          6.0272638844       -3.0563695810        0.5726513574
 H          4.5613072639       -4.8981740611       -0.0186995796
 H          2.2453496274       -4.4459236717       -0.7742864348
 H          1.4424157584       -2.1557708138       -0.9185949209
 H          0.7245353609       -0.3913723534       -0.4629369089
 H         -1.1278386535        0.1692701739        0.1567263175
 H         -4.7358217496        2.6676598908        1.0333378636
 H         -6.8310621756        2.6176721312        2.3339017219
 H         -8.0687015010        0.5296132993        2.6556090257
 H         -7.2341973609       -1.5937402614        1.7022760133
 H         -5.7840748032       -3.5450777818        0.4058730316
 H         -4.1087477856       -4.8086261238       -0.9024048408
 H         -2.2061164426       -3.6643549121       -1.9351260792
 H         -1.8912603501       -1.2322122553       -1.6766762594
 H         -4.2684469731        2.6088114696       -1.3781116351
