  112
       -173.54046961
 N        -12.5807506384       -3.3738630778        0.1987401609
 C        -11.4891427036       -3.0078055031        0.1671773950
 C        -10.1628278975       -2.5597514654        0.1276822405
 C         -9.1254608288       -3.4238741428       -0.2737793067
 C         -7.8359555789       -2.9756269906       -0.3156733488
 C         -7.5072201927       -1.6387192524        0.0247518938
 C         -6.1395601860       -1.2700781406       -0.0455905006
 N         -5.1691556570       -2.1846557329       -0.0910318109
 C         -4.0135612919       -1.5288621518       -0.0628175374
 C         -2.7049432419       -2.0764234437       -0.0563706581
 C         -2.5047418488       -3.4616038339       -0.0509575410
 C         -1.2361993176       -3.9863189104       -0.0251362751
 C         -0.1284328870       -3.1324543182       -0.0156150777
 C          1.2293982593       -3.6750166802       -0.0001017752
 C          1.5365767079       -4.8219607519        0.7361532835
 C          2.8127981892       -5.3377268846        0.7549484839
 C          3.8344543117       -4.7312479294        0.0194402178
 N          5.1252609540       -5.2573095670        0.0272136018
 C          5.3181964760       -6.6423878534        0.1095301657
 C          4.4659548116       -7.5160148841       -0.5656254597
 C          4.6592231299       -8.8808123781       -0.4781003706
 C          5.7039203594       -9.3949455092        0.2728350879
 C          6.5563182618       -8.5308168270        0.9407947438
 C          6.3671856094       -7.1646433395        0.8658463205
 C          6.2346829676       -4.4069512210       -0.0436565558
 C          6.2263826804       -3.1753339634        0.6114029735
 C          7.3242979905       -2.3407303795        0.5363569112
 C          8.4469294861       -2.7202947386       -0.1813974996
 C          8.4621445560       -3.9447125524       -0.8295414189
 C          7.3662603660       -4.7829959645       -0.7676824446
 C          3.5336710624       -3.5879668507       -0.7251661744
 C          2.2583251880       -3.0692198579       -0.7256312257
 C         -0.3333871575       -1.7525216048       -0.0251187315
 C         -1.6057357094       -1.1851856391       -0.0426961403
 C         -1.8317279171        0.2581094795       -0.0628480339
 C         -0.7811718831        1.1521450423       -0.0623287816
 C         -0.9418980200        2.5489526761       -0.1313221817
 C          0.1929167606        3.4332364993       -0.1039783603
 C          1.4050585817        3.0623914048        0.5139418009
 C          2.4829395147        3.9084833725        0.5538444542
 C          2.4168447678        5.1809411150       -0.0299802797
 N          3.5084678908        6.0436511094        0.0102930096
 C          3.3054949888        7.4223343333        0.1355985428
 C          4.1232193585        8.3224312052       -0.5489228048
 C          3.9189991836        9.6819612313       -0.4194401519
 C          2.8994139703       10.1654078297        0.3851608443
 C          2.0830816419        9.2753060606        1.0647551180
 C          2.2815499657        7.9139959227        0.9464764411
 C          4.8089157442        5.5360875960       -0.0662253144
 C          5.0939422966        4.4431914832       -0.8864521081
 C          6.3784406885        3.9411373087       -0.9529461678
 C          7.3975697990        4.5195859653       -0.2130583370
 C          7.1207470771        5.6078176451        0.5992474115
 C          5.8385083448        6.1138807067        0.6783408875
 C          1.2211180814        5.5646314154       -0.6529000175
 C          0.1440709641        4.7173114254       -0.6842428011
 C         -2.2655084537        3.0412413803       -0.2403479386
 C         -3.3307793363        2.1990521321       -0.2146083108
 C         -3.1747456060        0.7888762240       -0.0960860689
 C         -4.2302078426       -0.1142958791       -0.0347004668
 N         -5.6033464159        0.0269976018       -0.0186885827
 C         -6.3414720389        1.2213269706       -0.0555412557
 C         -7.1433335832        1.5055656204       -1.1582752754
 C         -7.8845971615        2.6717066656       -1.1851172950
 C         -7.8304825964        3.5587625843       -0.1217451137
 C         -7.0310104458        3.2770961596        0.9751225348
 C         -6.2876614085        2.1126552100        1.0146055677
 C         -8.5541567561       -0.7918669154        0.4566041502
 C         -9.8459746650       -1.2428550535        0.5050015494
 H         -9.3656429357       -4.4410286229       -0.5478081033
 H         -7.0315519567       -3.6259483394       -0.6197971148
 H         -3.3772486831       -4.0956760247       -0.0671733237
 H         -1.0895435318       -5.0558013771       -0.0410301173
 H          0.7684870068       -5.2930940737        1.3309687358
 H          3.0348324983       -6.2114264101        1.3499638136
 H          3.6586868547       -7.1159700914       -1.1614359115
 H          3.9940985750       -9.5472200506       -1.0069546490
 H          5.8527943325      -10.4619180960        0.3371843825
 H          7.3700288150       -8.9235390771        1.5323030718
 H          7.0262228441       -6.4924309619        1.3956233579
 H          5.3576031819       -2.8836122115        1.1830773086
 H          7.3059502059       -1.3906970570        1.0497938571
 H          9.3044369111       -2.0670071073       -0.2345403472
 H          9.3312935526       -4.2467596165       -1.3949216847
 H          7.3760731226       -5.7323693223       -1.2826873748
 H          4.3086406210       -3.1197505866       -1.3143426872
 H          2.0436654696       -2.2013658671       -1.3314511564
 H          0.5418221982       -1.1235755971        0.0080819811
 H          0.2285123906        0.7762688698       -0.0510148917
 H          1.4772529722        2.1094293584        1.0152152377
 H          3.3885240230        3.6081522102        1.0611617558
 H          4.9105409287        7.9463378760       -1.1856731123
 H          4.5554016655       10.3690297855       -0.9570585724
 H          2.7424402068       11.2287057303        0.4820664891
 H          1.2910550226        9.6441570517        1.6993863858
 H          1.6543692930        7.2207426999        1.4873742764
 H          4.3032053816        4.0012997273       -1.4746605651
 H          6.5872007758        3.0974141890       -1.5939338346
 H          8.4007962916        4.1257949887       -0.2696322808
 H          7.9082273470        6.0610159666        1.1828730042
 H          5.6218985690        6.9535454277        1.3223113042
 H          1.1629448613        6.5324843083       -1.1297102089
 H         -0.7459720596        5.0300498584       -1.2077312379
 H         -2.4369150558        4.1046347735       -0.3073520562
 H         -4.3253544663        2.6056158344       -0.2979354714
 H         -7.1825251360        0.8053308125       -1.9794263652
 H         -8.5052889510        2.8901008115       -2.0409755449
 H         -8.4118502240        4.4678708968       -0.1463255861
 H         -6.9904565678        3.9645820036        1.8068828453
 H         -5.6651251466        1.8813620842        1.8667242958
 H         -8.3402793131        0.2105646192        0.7902424556
 H        -10.6371066790       -0.5893055832        0.8442598454
