97
 energy: -161.520239392641 gnorm: 0.000083841449 xtb: 6.7.1 (edcfbbe)
F           -4.68189007968133       -6.10443792829154       -0.52308170368953
C           -4.72355486190068       -5.42017563618402        0.63196789699171
F           -5.72590698476363       -5.97306218568180        1.35095964363233
F           -3.59239876665330       -5.71683996185134        1.29092973855407
C           -4.91711746408007       -3.94873589713487        0.43227468729463
C           -4.38696076043412       -3.04783836364956        1.35267604931281
C           -4.59125710706808       -1.69602187389814        1.18288042305483
C           -5.33582545238529       -1.23091083976382        0.09460971697462
N           -5.52596429953849        0.14107464416847       -0.08047119225006
C           -4.50236904781117        1.10006867036958       -0.18059559012688
C           -3.11697773490060        0.86711805129008       -0.26377908425342
C           -2.50068594708373       -0.37283597700882       -0.58605535805127
C           -1.14647444536731       -0.49753875866658       -0.62102843762102
C           -0.27178954746027        0.59152881867414       -0.34833394617241
C            1.14393620685124        0.43712491304756       -0.33925783631107
C            1.76109967673384       -0.83661498630440       -0.20972510904748
C            3.11587319365752       -0.97667210624702       -0.16790782049940
C            3.97484679071974        0.14436937839738       -0.24000627326167
C            5.37969737260187       -0.08549332382803       -0.17917654270735
N            5.92505866077606       -1.26284089901119       -0.44533973042007
C            7.26126607467558       -1.11880248806060       -0.36938122466814
C            8.14658142827893       -2.25095833250434       -0.58509242845106
C            7.71092974701717       -3.29685320480160       -1.39959433149725
C            8.52062992954543       -4.39243804152001       -1.62383173979382
C            9.77245452538911       -4.46487644945941       -1.03336545814077
C           10.20371649875872       -3.44012945637537       -0.20639379766627
C            9.39898023807891       -2.34018985621701        0.02157010735644
C            7.57213009187791        0.20502648279863       -0.03532721592364
C            8.85546907917246        0.86043535030681        0.14436809703340
C            9.85976832105024        0.68493496129304       -0.81037785957095
C           11.08281439043812        1.30714902289282       -0.65879060535654
C           11.32551336795972        2.11108171808036        0.44423480817323
C           10.33774223758077        2.28437757068431        1.39978182500292
C            9.11019039502026        1.66709703466132        1.25434202622488
N            6.36561575283565        0.84659690626474        0.09815654444966
C            6.20528925359667        2.18008130213372        0.51436081729266
C            5.43638687179448        2.46403552337284        1.63968359076399
C            5.29953520298419        3.77255270672144        2.06201390418653
C            5.93232615814107        4.79728600658807        1.37627171059398
C            6.70090275614697        4.51183928642583        0.25991250679315
C            6.84061592360845        3.20698674640707       -0.17563047358969
C            3.37827025623265        1.41016124078331       -0.42228650864245
C            2.02091210694471        1.54672120450875       -0.46608359177540
C           -0.89865608792248        1.84672351112251       -0.09874590356051
C           -2.24912749395153        1.98025648167247       -0.06496187138434
N           -5.01897562521543        2.33186464773647       -0.26551590458926
C           -6.34321149693633        2.19455712278280       -0.26616448569707
C           -7.32132035100606        3.22086832659289       -0.41389251785766
C           -6.93934023396215        4.54959637952937       -0.61615474849388
C           -7.89065247302459        5.52459708303679       -0.80489893503007
C           -9.23626632250610        5.17169212725908       -0.80157302823892
C           -9.62295348011637        3.86475714348252       -0.59521054545500
C           -8.68348705017015        2.84689504419777       -0.38293969774386
C           -9.05735589379435        1.46774546871328       -0.11214300042105
C          -10.39503080634992        1.09360011421532        0.04413230358740
C          -10.76580791758360       -0.19612686212112        0.35655240340614
C           -9.79170577688670       -1.17155996733790        0.55229308303144
C           -8.46728141923087       -0.85177872717213        0.39854104358596
C           -8.06408513682072        0.45036974022312        0.04140704535390
C           -6.71463980818179        0.83427725199101       -0.12763838025317
C           -5.86930194902120       -2.14188575975073       -0.82283548455585
C           -5.66181469410801       -3.49342230634584       -0.65384583696229
H           -3.81777204895143       -3.41145785155465        2.19390741935552
H           -4.18018676611946       -0.98716893771148        1.88476955371679
H           -3.10961236738493       -1.21808193979829       -0.86522461820358
H           -0.72695132544867       -1.44701337267509       -0.91550034585972
H            1.14502845184564       -1.71523288256307       -0.10122389985460
H            3.57137897938460       -1.94786980966967       -0.05431441441550
H            6.73220974490292       -3.22572155451996       -1.84802803133547
H            8.17701463074711       -5.19447794594558       -2.26073565299518
H           10.40725430554819       -5.32070608993911       -1.21012865134345
H           11.17209734282946       -3.50108137713249        0.26883253252642
H            9.73416501728206       -1.55715977698975        0.68521319802664
H            9.66599804310393        0.06228018690660       -1.67147012571816
H           11.85023647298297        1.16766751984868       -1.40572232232198
H           12.28238429078598        2.59754452428217        0.56008446137471
H           10.52469317926289        2.90197935987333        2.26588433775534
H            8.35229317632007        1.79225898260827        2.01395754584537
H            4.95032734593777        1.65774294549630        2.16889143147770
H            4.70158496078788        3.99176362797813        2.93364122023397
H            5.82605301378061        5.81748550814131        1.71216172384719
H            7.19309224894590        5.30819140510413       -0.27758043952427
H            7.43366909346403        2.97816898633092       -1.04849963000364
H            3.99828526547755        2.28096493297512       -0.57288187259797
H            1.60984669538048        2.52708722931482       -0.64966120028041
H           -0.28639431180588        2.70963971793633        0.11158866978357
H           -2.70995411640763        2.93244703602434        0.14427666111496
H           -5.88443849603008        4.77491417519232       -0.62681311657834
H           -7.60016936744336        6.55251737130371       -0.96205768865619
H           -9.98960562957326        5.92937361601243       -0.96200584154676
H          -10.67770714647100        3.64079738298748       -0.60648650823597
H          -11.17386503628240        1.83059500299958       -0.06690888296930
H          -11.81044867993723       -0.44481393081088        0.46807372758573
H          -10.07605744658040       -2.17524153588380        0.83069352799734
H           -7.72036454910459       -1.60664668737086        0.58072352487535
H           -6.43811532936757       -1.77601770095996       -1.66419544329589
H           -6.06272474646080       -4.19956448373530       -1.36438587265352
