97
 energy: -161.520256301377 gnorm: 0.000039351057 xtb: 6.7.1 (edcfbbe)
F           -4.57473539825226       -6.16103014348762       -0.47401398808814
C           -4.67849696100088       -5.48602087900360        0.68308190495293
F           -5.70187699436491       -6.06136199731307        1.35309195966469
F           -3.57242063957617       -5.76839865530514        1.38851951916912
C           -4.88923783905430       -4.01701167148719        0.48301658192161
C           -4.37622231215818       -3.10695794865627        1.40392331362778
C           -4.59640762157982       -1.75826353268036        1.22857900833752
C           -5.33973255386893       -1.30560647329090        0.13419129179342
N           -5.54321349610679        0.06350932802810       -0.04796373838893
C           -4.52872792304386        1.03243153888654       -0.14814861283904
C           -3.14074409711157        0.81425824824729       -0.22578869739632
C           -2.50933116600935       -0.42137120066549       -0.53548400617908
C           -1.15367245933932       -0.52987368525611       -0.56895176405616
C           -0.29273019069025        0.57286671748475       -0.30892798925277
C            1.12499092974623        0.43640140385869       -0.30284249550103
C            1.75820006272059       -0.82688833526050       -0.15271337060253
C            3.11488748339785       -0.94940829211429       -0.11635663552388
C            3.95927892603997        0.18042324710165       -0.21635767081093
C            5.36736959839612       -0.03124320059684       -0.16211158184143
N            5.92493743169001       -1.20733935683883       -0.40735385941646
C            7.25994447926444       -1.04546030325483       -0.34618618138738
C            8.15720513104863       -2.17125788971901       -0.54494414612660
C            7.72618405295509       -3.24120451508435       -1.33016814876905
C            8.54733160810448       -4.33146784549121       -1.53804805455773
C            9.80631899651409       -4.37445656561743       -0.96005163020667
C           10.23328628746191       -3.32552626408660       -0.16166351440736
C            9.41705701156894       -2.23077165658878        0.04982908555228
C            7.55714768634092        0.28905263539679       -0.04397169179523
C            8.83338372924497        0.96496423873921        0.10855449792537
C            9.83033594831321        0.78205517120506       -0.85245680874781
C           11.04613629791131        1.42402030762940       -0.72725181821364
C           11.28878928753581        2.25533748420021        0.35529401411289
C           10.30841878283378        2.43620877510610        1.31702627589766
C            9.08809492004236        1.79925603090426        1.19787935923389
N            6.34394572050288        0.91853366477354        0.08618820766262
C            6.17070169083839        2.25858371061387        0.47544039955528
C            5.41169353150796        2.55646558405772        1.60386059800634
C            5.26197380906068        3.87187135288755        1.99956419159380
C            5.87207214076467        4.88988820385750        1.28390214687081
C            6.63089514887088        4.59067169379751        0.16448189889297
C            6.78348026956956        3.27863511578540       -0.24439164024827
C            3.34608189731175        1.43516423008651       -0.41816643991258
C            1.98679802305987        1.55432342940377       -0.45496971800364
C           -0.93440021358232        1.82253671600579       -0.07050501525490
C           -2.28637853680341        1.93961722388340       -0.03649410596289
N           -5.05761508386682        2.25849572865389       -0.24278297494147
C           -6.38013464213986        2.10757495323918       -0.25068444313757
C           -7.36754500733176        3.12298087477257       -0.41121599607374
C           -6.99746371664203        4.45402562482693       -0.62012268476625
C           -7.95715540251052        5.41813201330331       -0.82203908944378
C           -9.29916199271026        5.05180318001544       -0.82467778206844
C           -9.67417346958111        3.74248559326954       -0.61175878603629
C           -8.72602409552914        2.73544306550122       -0.38691780951863
C           -9.08766387752357        1.35401506164124       -0.11104176358393
C          -10.42252011396904        0.96696655469318        0.03735746174914
C          -10.78245876742404       -0.32516038803121        0.35264437802458
C           -9.79996265821443       -1.28983177141098        0.55958804910885
C           -8.47774993709327       -0.95719453032903        0.41437094361643
C           -8.08516864564410        0.34751408801047        0.05456855566863
C           -6.73858218777791        0.74420565461195       -0.10680300697708
C           -5.85720043151456       -2.22602928945972       -0.78310203022060
C           -5.63366202696849       -3.57420618577636       -0.60867479851377
H           -3.80750148337408       -3.46063013758641        2.24967595528149
H           -4.19805249277219       -1.04221104065723        1.93050257707833
H           -3.10761114232985       -1.27677480609132       -0.80634245112274
H           -0.72205058446067       -1.47695381779639       -0.85360632611801
H            1.15320728748364       -1.71040785858624       -0.02329793908284
H            3.58314936552143       -1.91247240702625        0.01340666418926
H            6.74182540990987       -3.19272843684151       -1.76917604980255
H            8.20711487251683       -5.15232840032765       -2.15239909810083
H           10.45014467247534       -5.22604230224731       -1.12422138760963
H           11.20745480796732       -3.36331051151972        0.30405001971214
H            9.74934524581333       -1.42847126255160        0.69155203931976
H            9.63648200854568        0.13797853519160       -1.69762912282097
H           11.80782813483157        1.27856944623905       -1.47889509720558
H           12.23993591652194        2.75726190881361        0.45046695328728
H           10.49552187609129        3.07526286173751        2.16738880952822
H            8.33622033706093        1.93086382036349        1.96237211415795
H            4.94322998732928        1.75528034677178        2.15620188160448
H            4.67183159235576        4.10188573875952        2.87372380426862
H            5.75569625434554        5.91563435144220        1.59889650884691
H            7.10524778806854        5.38178272310332       -0.39628167412952
H            7.36903906573469        3.03882476188785       -1.11937163301432
H            3.95419117976354        2.31051793087341       -0.58932089894530
H            1.56189915440123        2.52582575729107       -0.65376509488194
H           -0.33211182133370        2.69449507910624        0.13140132412884
H           -2.75882812302652        2.88784604185732        0.16460975795685
H           -5.94479314660829        4.68974898775568       -0.62544693195071
H           -7.67585043464138        6.44772058535887       -0.98489683533019
H          -10.05896636057014        5.80076801436087       -0.99523914752872
H          -10.72657731112656        3.50802624810420       -0.62807091134359
H          -11.20797165164024        1.69549327908311       -0.08260303402053
H          -11.82532709533437       -0.58398991659299        0.45750207242470
H          -10.07621776770020       -2.29524715365923        0.83986831079016
H           -7.72448788315167       -1.70362786175033        0.60509417556710
H           -6.42544655148773       -1.86983047673639       -1.62897644612020
H           -6.02123854836248       -4.28768851752888       -1.31931520843445
