  55
       -101.76990596
 C          3.3456979473        6.5669345522       -0.0492537436
 C          1.9800635784        5.9568460735       -0.0247000724
 C          1.7793992094        4.5877359146       -0.0074537045
 C          0.4932860182        4.0463267355        0.0112855487
 C          0.3164310760        2.5994049283        0.0230400942
 N          1.4180495611        1.8517853723        0.0281407960
 C          1.2761997323        0.5417891212        0.0293753069
 N          2.3182387944       -0.2645141292        0.0318985710
 C          2.0925176069       -1.5765766526        0.0236288372
 C          3.2584713431       -2.4515628963        0.0164955341
 C          4.5414445643       -1.9047686548        0.0414353009
 C          5.6400677456       -2.7398383026        0.0313013228
 C          5.4415198523       -4.1088812993       -0.0057819049
 F          6.5257520236       -4.9158001616       -0.0172115358
 C          4.1756382111       -4.6916652045       -0.0313410086
 C          4.0254153199       -6.1793332283       -0.0763541441
 C          3.0878684704       -3.8361847625       -0.0182762247
 N          0.8943625265       -2.1571050460        0.0174821068
 C         -0.1694504486       -1.3794029663        0.0195838353
 N         -1.3889203692       -1.8784790975        0.0152693050
 C         -2.4121546764       -1.0266305744        0.0153580489
 C         -3.7537800918       -1.5968025619        0.0062361575
 C         -3.9249945386       -2.9810243072       -0.0045683864
 C         -5.1991064545       -3.5113153805       -0.0160629755
 C         -6.2836377355       -2.6516330511       -0.0166593639
 F         -7.5260544047       -3.1836532974       -0.0289624340
 C         -6.1520937711       -1.2640615491       -0.0055205286
 C         -7.3634141704       -0.3863066572       -0.0085114541
 C         -4.8658914127       -0.7534876189        0.0061315697
 N         -2.3155407114        0.3012215062        0.0205636155
 C         -1.1101282816        0.8334253782        0.0241183969
 N         -0.9328251991        2.1390942885        0.0243272378
 N         -0.0011667651       -0.0014250493        0.0245834287
 C         -0.6199479085        4.8866276443        0.0143818669
 C         -0.4424507110        6.2551371943       -0.0013560961
 C          0.8441026830        6.7645285986       -0.0211387534
 F          1.0043460307        8.1064871223       -0.0376175027
 H          3.4762567085        7.2347393688        0.8013538988
 H          3.4760699330        7.1610351128       -0.9532186132
 H          4.1102424158        5.7966659848       -0.0180188940
 H          2.6199946083        3.9114766190       -0.0092011253
 H          4.6521250301       -0.8331664850        0.0687227071
 H          6.6459155461       -2.3506735292        0.0501497873
 H          4.4505991224       -6.5716515467       -0.9995827690
 H          4.5635876639       -6.6389543151        0.7513328888
 H          2.9782997131       -6.4610078696       -0.0219115262
 H          2.0830149228       -4.2284915336       -0.0363171889
 H         -3.0536007865       -3.6154812878       -0.0047892040
 H         -5.3677120268       -4.5766942762       -0.0250194653
 H         -7.0783791427        0.6608967904        0.0203961726
 H         -7.9930386060       -0.6088628285        0.8518006135
 H         -7.9578738677       -0.5685547192       -0.9029219327
 H         -4.7005301770        0.3126574624        0.0148138180
 H         -1.6047313436        4.4492005629        0.0289689765
 H         -1.2808236096        6.9337984486        0.0011260235
  55
       -101.76989032
 C          3.4955077722        6.3170671363        0.0189490399
 C          2.1071388396        5.7602254961        0.0036027024
 C          1.8535435089        4.3998247271        0.0026631475
 C          0.5476019059        3.9082177141       -0.0104678597
 C          0.3157107847        2.4688980484       -0.0105876386
 N          1.3888696022        1.6809085936       -0.0085189622
 C          1.1982747983        0.3770593554       -0.0069962727
 N          2.2098862964       -0.4670584706       -0.0080661355
 C          1.9357656823       -1.7700975192       -0.0011304537
 C          3.0682403953       -2.6880369696        0.0000891587
 C          2.8520749900       -4.0657277028        0.0222057854
 C          3.9311797566       -4.9262077159        0.0257100430
 C          5.2102652528       -4.3983366565        0.0064755698
 F          6.2586035927       -5.2517357307        0.0098786542
 C          5.4654497362       -3.0282572165       -0.0179579722
 C          6.8712556598       -2.5174022404       -0.0372760461
 C          4.3693251095       -2.1835911288       -0.0200951773
 N          0.7172210382       -2.3058133113        0.0064908852
 C         -0.3172329345       -1.4894698026        0.0043534230
 N         -1.5542323457       -1.9425688131        0.0093816003
 C         -2.5454511340       -1.0535963639        0.0032707206
 C         -3.9067984025       -1.5747376593        0.0081116712
 C         -4.1274310753       -2.9519257479        0.0257221210
 C         -5.4195518336       -3.4366026565        0.0320106935
 C         -6.4727253846       -2.5389796416        0.0198974694
 F         -7.7334477409       -3.0261222071        0.0262872225
 C         -6.2916672126       -1.1570707279        0.0014490714
 C         -7.4711506968       -0.2369647861       -0.0128163824
 C         -4.9880919655       -0.6925316237       -0.0038898577
 N         -2.3997247865        0.2698584191       -0.0060877294
 C         -1.1754391716        0.7570453870       -0.0078875495
 N         -0.9497298480        2.0554888013       -0.0127370845
 N         -0.0981480839       -0.1182346008       -0.0035721636
 C         -0.5321162184        4.7908941463       -0.0227463502
 C         -0.3017222616        6.1516979768       -0.0229564744
 C          1.0034627746        6.6112739338       -0.0099673692
 F          1.2156380305        7.9460863009       -0.0100787658
 H          3.6398727634        6.9448828090        0.8973917647
 H          3.6612852557        6.9410316543       -0.8584826020
 H          4.2292865542        5.5168996352        0.0296393297
 H          2.6676338423        3.6920997036        0.0125683820
 H          1.8401565524       -4.4359312612        0.0373248020
 H          3.7999987313       -5.9968071720        0.0432283908
 H          7.4172889387       -2.9450834514       -0.8769063496
 H          6.8844601478       -1.4347598893       -0.1171639686
 H          7.3907465923       -2.8125001894        0.8737691464
 H          4.5037270624       -1.1133098000       -0.0380910620
 H         -3.2794114318       -3.6168829060        0.0348054816
 H         -5.6257070989       -4.4951980672        0.0458574232
 H         -7.1489837345        0.7996842393        0.0034048017
 H         -8.1081343090       -0.4267541536        0.8500900437
 H         -8.0717399765       -0.4088296661       -0.9053612060
 H         -4.7850244546        0.3669685136       -0.0172790529
 H         -1.5335827712        4.3921183359       -0.0305608792
 H         -1.1136032750        6.8617965998       -0.0324879187
  55
       -101.76972980
 C         -1.0876183269        7.1278156798       -0.0472055513
 C          0.0373553825        6.1403303925       -0.0328354240
 C         -0.1999329005        4.7749156426       -0.0229573008
 C          0.8492771013        3.8576730982        0.0018361449
 C          0.5637411042        2.4278667111        0.0081390031
 N          1.6058334185        1.5994712103        0.0128826269
 C          1.3652135573        0.3037420986        0.0123751533
 N          2.3429013748       -0.5794949776        0.0128225336
 C          2.0181505434       -1.8709408895        0.0102036981
 C          3.1116705040       -2.8347856653        0.0087000871
 C          2.8359122240       -4.2021280810        0.0085979123
 C          3.8763220795       -5.1086728238        0.0062722448
 C          5.1771353446       -4.6364583554        0.0035049432
 F          6.1873252822       -5.5342775680        0.0008974652
 C          5.4915628671       -3.2785744506        0.0034123351
 C          6.9187440168       -2.8303503894       -0.0019321961
 C          4.4333568290       -2.3867729736        0.0063209408
 N          0.7793447576       -2.3584960239        0.0074865662
 C         -0.2220838378       -1.5025448095        0.0067956097
 N         -1.4758499036       -1.9075640155        0.0029019988
 C         -2.4317116867       -0.9811096877        0.0044577765
 C         -3.8121454548       -1.4496676038       -0.0003196876
 C         -4.0850116358       -2.8173107414       -0.0244403900
 C         -5.3946892685       -3.2522819779       -0.0312457541
 C         -6.4127452019       -2.3151459473       -0.0123133143
 F         -7.6911222803       -2.7538447245       -0.0193778540
 C         -6.1791590838       -0.9412502863        0.0130700760
 C         -7.3227249414        0.0229159636        0.0357510031
 C         -4.8588410385       -0.5268167911        0.0179811659
 N         -2.2350838622        0.3358643991        0.0086185009
 C         -0.9926056672        0.7748369273        0.0091103710
 N         -0.7168670719        2.0634561228        0.0074549830
 N          0.0501106044       -0.1410602733        0.0096505212
 C          2.1702616693        4.3072944048        0.0168450513
 C          2.4290531722        5.6616827406        0.0090298763
 C          1.3674344026        6.5511317839       -0.0139577293
 F          1.6464128665        7.8740399183       -0.0228577831
 H         -1.5059974012        7.2273196465        0.9540987756
 H         -1.8795410194        6.7898870446       -0.7107978492
 H         -0.7415560282        8.1059203778       -0.3701130316
 H         -1.2114683815        4.3992479123       -0.0361295014
 H          1.8086256950       -4.5277359797        0.0106691892
 H          3.6988367829       -6.1726392539        0.0063977300
 H          7.4223740446       -3.1898365639       -0.8985631989
 H          6.9806258399       -1.7468859451        0.0291690428
 H          7.4471701110       -3.2432993026        0.8562941364
 H          4.6142264401       -1.3231828215        0.0069253042
 H         -3.2628246128       -3.5138731034       -0.0382083233
 H         -5.6413641912       -4.3021694126       -0.0510633464
 H         -7.9713589332       -0.1404516702       -0.8239122716
 H         -6.9615248946        1.0466983345        0.0201310872
 H         -7.9243441088       -0.1282730871        0.9314054467
 H         -4.6151251550        0.5239802179        0.0370248723
 H          2.9681653509        3.5833490495        0.0338344235
 H          3.4370542456        6.0444697219        0.0202128536
  55
       -101.76963288
 C          3.5000765211        6.3049142657       -0.0223599345
 C          2.0997372618        5.7750695587       -0.0120339685
 C          1.8493880850        4.4113095575        0.0025178592
 C          0.5478510097        3.9136898288        0.0089094728
 C          0.3194901496        2.4736113108        0.0178835334
 N          1.3933771953        1.6862951191        0.0223733636
 C          1.2036474601        0.3823111875        0.0151878888
 N          2.2151661329       -0.4623233619        0.0164419964
 C          1.9405776911       -1.7651484948       -0.0057990654
 C          3.0697527535       -2.6871619246       -0.0070763767
 C          2.8450456324       -4.0629271712       -0.0612007964
 C          3.9177451864       -4.9306731709       -0.0644594706
 C          5.1997866512       -4.4122189047       -0.0098907943
 F          6.2415587898       -5.2730583270       -0.0139981147
 C          5.4635053524       -3.0448720579        0.0467824929
 C          6.8716923756       -2.5444888251        0.1167392337
 C          4.3732846054       -2.1921121962        0.0454972547
 N          0.7218583743       -2.3001729302       -0.0275757632
 C         -0.3123324352       -1.4841030615       -0.0184369866
 N         -1.5491468105       -1.9376158468       -0.0275510554
 C         -2.5405523749       -1.0493254359       -0.0070757130
 C         -3.9013938187       -1.5718082535       -0.0099863249
 C         -4.1200824106       -2.9478365778       -0.0748441401
 C         -5.4114690566       -3.4343967294       -0.0809194941
 C         -6.4653552693       -2.5396496495       -0.0196648532
 F         -7.7253562433       -3.0285810975       -0.0260806541
 C         -6.2861153423       -1.1589998623        0.0481674561
 C         -7.4670028381       -0.2431213743        0.1150094635
 C         -4.9833740594       -0.6923787464        0.0506189886
 N         -2.3951090673        0.2740654844        0.0140015012
 C         -1.1706752945        0.7610294547        0.0133038848
 N         -0.9454811644        2.0596118666        0.0189700435
 N         -0.0931788365       -0.1132523389        0.0030982346
 C         -0.5363704490        4.7930445048        0.0017432035
 C         -0.3102783257        6.1528406644       -0.0124285613
 C          0.9942525994        6.6205068969       -0.0196669972
 F          1.1877158478        7.9587370381       -0.0344913660
 H          4.0174918834        5.9748096360       -0.9217524977
 H          4.0500001858        5.9268250773        0.8375191738
 H          3.5064014051        7.3910266267        0.0056819500
 H          2.6693553028        3.7099730478        0.0083735135
 H          1.8308415340       -4.4248491323       -0.1015912069
 H          3.7797582957       -5.9995474636       -0.1084681316
 H          7.3036297226       -2.7807155791        1.0893677851
 H          7.4857684179       -3.0296384097       -0.6401920842
 H          6.9045749271       -1.4689122371       -0.0288655305
 H          4.5151118929       -1.1233240402        0.0849962560
 H         -3.2711045520       -3.6101291440       -0.1201305879
 H         -5.6168994706       -4.4920409976       -0.1318565558
 H         -7.1467959707        0.7937273737        0.1496952376
 H         -8.0632394761       -0.4615347057        1.0002676384
 H         -8.1075573496       -0.3900675806       -0.7537389946
 H         -4.7809520450        0.3661598529        0.0999843334
 H         -1.5358762629        4.3901754029        0.0068072918
 H         -1.1242052041        6.8607201676       -0.0185799073
  55
       -101.76951389
 C          3.3522765661        6.5501005587        0.0136443418
 C          1.9819055415        5.9500137748        0.0343355055
 C          1.7773854084        4.5819954921       -0.0243033894
 C          0.4910358800        4.0421406871       -0.0175814111
 C          0.3130251845        2.5960409770       -0.0616304285
 N          1.4148604786        1.8486841021       -0.0731044249
 C          1.2732852338        0.5389113032       -0.0707381367
 N          2.3156503613       -0.2669067814       -0.0722492440
 C          2.0908849505       -1.5786219629       -0.0424108048
 C          3.2590585735       -2.4509168180       -0.0357453354
 C          4.5401537067       -1.9003963514       -0.0969858414
 C          5.6404877912       -2.7314062279       -0.0857210876
 C          5.4492302678       -4.1012011444       -0.0094628379
 F          6.5422060741       -4.8968512294        0.0025446973
 C          4.1873402224       -4.6867943251        0.0512656386
 C          4.0218427934       -6.1709899161        0.1504176223
 C          3.0955539748       -3.8335970630        0.0350727675
 N          0.8932183311       -2.1596677080       -0.0107664170
 C         -0.1710597217       -1.3826079205       -0.0197157544
 N         -1.3907259913       -1.8812688332        0.0077676813
 C         -2.4136182739       -1.0300503609       -0.0276284352
 C         -3.7563196521       -1.5972180206        0.0042091604
 C         -3.9335816136       -2.9648577082        0.2123335544
 C         -5.2097910264       -3.4878189744        0.2619570947
 C         -6.2898792086       -2.6392734742        0.0931141402
 F         -7.5342423965       -3.1645134546        0.1439903220
 C         -6.1517914732       -1.2697550413       -0.1259569494
 C         -7.3570484154       -0.4043217243       -0.3162263458
 C         -4.8638775211       -0.7647990439       -0.1625489014
 N         -2.3176031328        0.2968887470       -0.0805197362
 C         -1.1126234055        0.8296914420       -0.0765880139
 N         -0.9358201248        2.1355444732       -0.0782881385
 N         -0.0036192892       -0.0049244251       -0.0567203037
 C         -0.6203578233        4.8826303628        0.0488396904
 C         -0.4391646491        6.2490088599        0.1106406582
 C          0.8484254986        6.7575515381        0.1014517227
 F          1.0080754117        8.0982873143        0.1655044090
 H          3.5831362752        6.9149166551       -0.9873660216
 H          4.0975020558        5.8106379296        0.2918057682
 H          3.4104159891        7.3965660081        0.6947751467
 H          2.6167881607        3.9060185323       -0.0735809745
 H          4.6462573461       -0.8294174906       -0.1524593644
 H          6.6447846934       -2.3403610209       -0.1332858429
 H          3.1287100364       -6.4904697116       -0.3800942823
 H          4.8880067278       -6.6852742362       -0.2585481599
 H          3.9183452939       -6.4625346804        1.1957643879
 H          2.0935734224       -4.2314240242        0.0779468856
 H         -3.0658480891       -3.5918572038        0.3365314794
 H         -5.3834828640       -4.5394267427        0.4281302928
 H         -7.0729734597        0.6423043606       -0.3689258622
 H         -8.0587596837       -0.5452125713        0.5044031775
 H         -7.8722568553       -0.6774134128       -1.2368225579
 H         -4.6941796060        0.2892527525       -0.3182271326
 H         -1.6059331409        4.4467324599        0.0547646257
 H         -1.2754557770        6.9279486700        0.1671023356
  55
       -101.76950890
 C          3.4764277202        6.3448009642       -0.0462268886
 C          2.0930709372        5.7754109573       -0.0487056975
 C          1.8502987843        4.4138047226        0.0012638473
 C          0.5480844287        3.9123033861        0.0003708498
 C          0.3227546630        2.4726878707        0.0453424698
 N          1.3965218767        1.6854258367        0.0520408012
 C          1.2064722854        0.3818140993        0.0913517834
 N          2.2171203154       -0.4636985718        0.0778690345
 C          1.9425823074       -1.7654126944        0.1350321601
 C          3.0698530375       -2.6883523052        0.0813224525
 C          2.8594919640       -4.0581484237        0.2389313832
 C          3.9299537872       -4.9260818904        0.1659641975
 C          5.1934776003       -4.4144250689       -0.0727874724
 F          6.2321467726       -5.2758899457       -0.1497597692
 C          5.4420229335       -3.0529298805       -0.2377541781
 C          6.8283642822       -2.5607416088       -0.5095297662
 C          4.3561062223       -2.1993877029       -0.1504578665
 N          0.7259283481       -2.2985713163        0.2213981187
 C         -0.3084886033       -1.4824234179        0.2076004025
 N         -1.5454898584       -1.9355664240        0.2351079259
 C         -2.5361186804       -1.0491118362        0.1639537237
 C         -3.8965312545       -1.5708742462        0.1210535873
 C         -4.1271283258       -2.9393731409        0.2592280943
 C         -5.4175010431       -3.4240988258        0.1901615288
 C         -6.4575166974       -2.5365189923       -0.0249390432
 F         -7.7152928562       -3.0257939205       -0.0993493719
 C         -6.2658907991       -1.1633810405       -0.1675125100
 C         -7.4276527491       -0.2535879092       -0.4141060164
 C         -4.9653830973       -0.6975320456       -0.0847867448
 N         -2.3909677566        0.2732343157        0.1103269204
 C         -1.1671567413        0.7609553348        0.1073249494
 N         -0.9422357690        2.0584131865        0.0652327802
 N         -0.0894380414       -0.1131458317        0.1385665598
 C         -0.5383626571        4.7857232812       -0.0498938775
 C         -0.3187761319        6.1470958731       -0.1021733099
 C          0.9829328113        6.6166316912       -0.1011186021
 F          1.1850832627        7.9519456317       -0.1540920412
 H          4.2179332159        5.5517342668       -0.0502461325
 H          3.6254444560        6.9660059220        0.8363689174
 H          3.6254204612        6.9784214906       -0.9195310201
 H          2.6695588034        3.7130244789        0.0409667830
 H          1.8585043690       -4.4164679233        0.4152598509
 H          3.8035629810       -5.9905773300        0.2862859000
 H          6.8586377365       -1.4754118040       -0.5012700608
 H          7.5215233501       -2.9455251743        0.2369400995
 H          7.1664585527       -2.9158897852       -1.4828196779
 H          4.4865459210       -1.1347899076       -0.2675357946
 H         -3.2886318525       -3.5977594703        0.4168744685
 H         -5.6323261387       -4.4759317572        0.2950569366
 H         -7.8567997706       -0.4539513646       -1.3958159125
 H         -7.1161386054        0.7858159976       -0.3724804170
 H         -8.2088377278       -0.4248445976        0.3247694937
 H         -4.7541550094        0.3555236973       -0.1875944507
 H         -1.5361122374        4.3784767703       -0.0491919544
 H         -1.1357648232        6.8500709113       -0.1442430520
