  55
  -101.493918432500       0.348210211409841      !
 C          4.1261392905        5.9243611219        0.0345066481
 C          2.6879203220        5.5131713329        0.0164630515
 C          2.2958688092        4.1860376486        0.0127858009
 C          0.9463413646        3.8312626072       -0.0028249446
 C          0.5677679526        2.4233961548       -0.0057965420
 N          1.5542642174        1.5292917395       -0.0038161298
 C          1.2306876379        0.2519317056       -0.0048529479
 N          2.1501989169       -0.6916736678       -0.0061867231
 C          1.7436144735       -1.9596530804       -0.0019116373
 C          2.7757595412       -2.9891135757       -0.0009392627
 C          2.4191305904       -4.3373301936        0.0184547176
 C          3.4040898769       -5.3041546781        0.0217487105
 C          4.7306755138       -4.9104943953        0.0050257690
 F          5.6857590973       -5.8671135201        0.0081934554
 C          5.1253380133       -3.5738547924       -0.0166508043
 C          6.5762245382       -3.2101429371       -0.0333321579
 C          4.1218219676       -2.6210136693       -0.0186268442
 N          0.4764592611       -2.3673189752        0.0032585139
 C         -0.4686232349       -1.4489881070        0.0013073957
 N         -1.7456418122       -1.7725739429        0.0040090962
 C         -2.6402488377       -0.7864353397       -0.0017328206
 C         -4.0479488619       -1.1649240346        0.0005076661
 C         -4.4089634435       -2.5121741588        0.0153908934
 C         -5.7440583313       -2.8615081185        0.0192290066
 C         -6.6993946584       -1.8603880044        0.0074241446
 F         -8.0035109292       -2.2154014293        0.0113975792
 C         -6.3772587134       -0.5043737477       -0.0083371831
 C         -7.4559226732        0.5320941856       -0.0224092035
 C         -5.0328407677       -0.1762496469       -0.0112475139
 N         -2.3592773766        0.5150502924       -0.0085518481
 C         -1.0914067884        0.8738447913       -0.0079800043
 N         -0.7334524819        2.1422245212       -0.0102365658
 N         -0.1097736219       -0.1075162411       -0.0039035086
 C         -0.0369347160        4.8202434548       -0.0148543127
 C          0.3320813143        6.1501642814       -0.0123544973
 C          1.6775647552        6.4731558816        0.0030562868
 F          2.0257874291        7.7790949982        0.0055861089
 H          4.3330232242        6.5325684121        0.9142442911
 H          4.3563921877        6.5294309135       -0.8416065469
 H          4.7737890443        5.0530057937        0.0446703726
 H          3.0329057154        3.3983832055        0.0224279293
 H          1.3745056362       -4.6016069599        0.0316713550
 H          3.1635597067       -6.3556322828        0.0371964664
 H          7.0765951889       -3.6902893239       -0.8730531030
 H          6.7007280417       -2.1344594086       -0.1112726686
 H          7.0613598732       -3.5585657187        0.8778221886
 H          4.3655239883       -1.5701827230       -0.0345487499
 H         -3.6337807359       -3.2607726654        0.0243290765
 H         -6.0579269948       -3.8933343691        0.0309345392
 H         -7.0289541439        1.5301186233       -0.0039436423
 H         -8.1102485410        0.4073482954        0.8393748460
 H         -8.0697399097        0.4243307922       -0.9159956478
 H         -4.7219511773        0.8567931023       -0.0224976893
 H         -1.0740671286        4.5265094439       -0.0246093004
 H         -0.4025145749        6.9399520939       -0.0216158910
  55
  -101.493731124200       0.285601555350380      !
 C          4.0028959126        6.1884130895       -0.0334341869
 C          2.5817632320        5.7218563439       -0.0116449354
 C          2.2414418497        4.3805899003        0.0029131281
 C          0.9064751940        3.9741862203        0.0191080781
 C          0.5818486303        2.5530824494        0.0280647701
 N          1.6007981803        1.6962044470        0.0331841367
 C          1.3250771724        0.4077210854        0.0319080071
 N          2.2787358293       -0.5014028239        0.0342721443
 C          1.9193885885       -1.7833066980        0.0233851619
 C          2.9892611767       -2.7734682112        0.0161223451
 C          4.3215965458       -2.3614572887        0.0436120636
 C          5.3286013164       -3.3049893371        0.0333371322
 C          4.9904683945       -4.6463169396       -0.0064315549
 F          5.9860530682       -5.5603662378       -0.0179695896
 C          3.6714365261       -5.0958823489       -0.0345838221
 C          3.3691934562       -6.5601598746       -0.0824346650
 C          2.6773211058       -4.1331677973       -0.0213283651
 N          0.6679291794       -2.2376205444        0.0147323740
 C         -0.3103337603       -1.3547163350        0.0169154795
 N         -1.5746273477       -1.7258218487        0.0102140048
 C         -2.5049040745       -0.7733306681        0.0105661859
 C         -3.8980056651       -1.2025941281       -0.0012193817
 C         -4.2105466086       -2.5618723618       -0.0147029701
 C         -5.5323905419       -2.9584003165       -0.0287072307
 C         -6.5228336646       -1.9918164205       -0.0291014445
 F         -7.8133267466       -2.3933202634       -0.0438783651
 C         -6.2494093737       -0.6251299300       -0.0153262828
 C         -7.3641096637        0.3724644208       -0.0182384164
 C         -4.9175654551       -0.2494574497       -0.0011848413
 N         -2.2723535009        0.5375520726        0.0182587027
 C         -1.0186375576        0.9430557770        0.0242422631
 N         -0.7080977513        2.2235889344        0.0269975387
 N         -0.0013415510       -0.0013381127        0.0245793972
 C         -0.1145154866        4.9244349172        0.0223367632
 C          0.2026975607        6.2674822525        0.0092575940
 C          1.5348132759        6.6419942003       -0.0080373247
 F          1.8321363848        7.9604054555       -0.0219258129
 H          4.2001952578        6.8378624365        0.8185228182
 H          4.1948991083        6.7674593002       -0.9361772705
 H          4.6841921293        5.3436028193       -0.0026348604
 H          3.0080933806        3.6215299226        0.0009912839
 H          4.5417748381       -1.3069493541        0.0729465825
 H          6.3690886135       -3.0212838939        0.0541142647
 H          3.7531059820       -6.9925736119       -1.0058389941
 H          3.8561212620       -7.0740169486        0.7450912012
 H          2.2986000852       -6.7328242809       -0.0297798185
 H          1.6374987783       -4.4201021052       -0.0413023829
 H         -3.4089661758       -3.2825189533       -0.0149858531
 H         -5.8095734250       -4.0007953924       -0.0397708743
 H         -6.9730096455        1.3847823920        0.0128868065
 H         -8.0144789312        0.2143732545        0.8409018701
 H         -7.9728941738        0.2537459929       -0.9137015073
 H         -4.6435306076        0.7940336148        0.0096019459
 H         -1.1390565418        4.5905029444        0.0349348998
 H         -0.5614974351        7.0287018595        0.0119211474
  55
  -101.492924715600       0.121663648250666      !
 C          4.0075189909        6.1710245298       -0.0030761802
 C          2.5827821065        5.7149453423        0.0207062188
 C          2.2386964752        4.3750855522       -0.0351672790
 C          0.9037016741        3.9702638863       -0.0255858025
 C          0.5779869772        2.5500362678       -0.0667676341
 N          1.5971869004        1.6934099898       -0.0785108389
 C          1.3217974757        0.4051203283       -0.0735766007
 N          2.2758520335       -0.5035311493       -0.0751643683
 C          1.9175583905       -1.7851605361       -0.0426325400
 C          2.9899390595       -2.7728495022       -0.0361084768
 C          4.3207134476       -2.3569682883       -0.1002198477
 C          5.3298628924       -3.2966131774       -0.0890714126
 C          4.9990089149       -4.6393813661       -0.0100643802
 F          6.0044731545       -5.5430964040        0.0017739053
 C          3.6837337078       -5.0921236803        0.0535699986
 C          3.3667874617       -6.5512960645        0.1556390804
 C          2.6853583079       -4.1312951826        0.0374409393
 N          0.6665860527       -2.2400257943       -0.0081845611
 C         -0.3122372963       -1.3577461401       -0.0169732462
 N         -1.5766353702       -1.7284091748        0.0131975944
 C         -2.5067163506       -0.7766589457       -0.0222321376
 C         -3.9005295788       -1.2028178490        0.0125967581
 C         -4.2170238492       -2.5446636696        0.2234451680
 C         -5.5401260154       -2.9336526183        0.2758827750
 C         -6.5275941637       -1.9789037902        0.1070952699
 F         -7.8192507323       -2.3734293347        0.1607429133
 C         -6.2498917342       -0.6311822351       -0.1146457359
 C         -7.3601662502        0.3531901437       -0.3047064763
 C         -4.9169754393       -0.2612844168       -0.1540365096
 N         -2.2749652511        0.5333042167       -0.0776553653
 C         -1.0216165686        0.9394888337       -0.0764511184
 N         -0.7115872038        2.2202611098       -0.0807637991
 N         -0.0041993240       -0.0046196246       -0.0567059681
 C         -0.1153471632        4.9206022486        0.0409505456
 C          0.2053717093        6.2612328243        0.1000232758
 C          1.5383794655        6.6347765979        0.0880294561
 F          1.8350382517        7.9521173250        0.1494317058
 H          4.2729925799        6.5085465699       -1.0050798644
 H          4.6732839675        5.3593656783        0.2753240606
 H          4.1534372574        7.0081540682        0.6764421185
 H          3.0041244683        3.6163625770       -0.0844576993
 H          4.5361977695       -1.3026512178       -0.1577788269
 H          6.3689420295       -3.0109012977       -0.1388137100
 H          2.4446863655       -6.7781919014       -0.3729857297
 H          4.1748561088       -7.1525224182       -0.2536691987
 H          3.2356027925       -6.8289475122        1.2016602076
 H          1.6478787832       -4.4239986091        0.0825014361
 H         -3.4180978432       -3.2572944318        0.3474999764
 H         -5.8206685720       -3.9615751195        0.4442053522
 H         -6.9701501237        1.3650024627       -0.3597085968
 H         -8.0712893131        0.2864889046        0.5172039102
 H         -7.9022188269        0.1329670345       -1.2240524280
 H         -4.6401373080        0.7694967568       -0.3118626947
 H         -1.1404804858        4.5882832083        0.0491065049
 H         -0.5566449124        7.0225950612        0.1564878660
  55
  -101.492747380600       0.100847076309046      !
 C          4.1102113402        5.9539438893        0.0300132654
 C          2.6757205875        5.5298288789        0.0142065642
 C          2.2939842867        4.2000391329        0.0508595327
 C          0.9471693244        3.8350960757        0.0377203412
 C          0.5748015300        2.4259598528        0.0688027002
 N          1.5619193222        1.5324496185        0.0751534825
 C          1.2386580862        0.2550105026        0.1019721489
 N          2.1571464473       -0.6897886365        0.0872541506
 C          1.7499175497       -1.9567975590        0.1314289509
 C          2.7767308619       -2.9902775325        0.0765188149
 C          2.4256473087       -4.3324099699        0.2209301089
 C          3.4017390233       -5.3051820173        0.1468981138
 C          4.7127701159       -4.9242355434       -0.0797398076
 F          5.6579305950       -5.8872727982       -0.1579129020
 C          5.1010328378       -3.5942263303       -0.2313494924
 C          6.5324563705       -3.2450060040       -0.4904352579
 C          4.1079905566       -2.6342950355       -0.1432079268
 N          0.4843516535       -2.3627260958        0.2057864466
 C         -0.4606078919       -1.4444724885        0.1928261788
 N         -1.7377839538       -1.7682474845        0.2089013753
 C         -2.6315672695       -0.7841031728        0.1394645112
 C         -4.0380623595       -1.1628787447        0.0837919523
 C         -4.4090066053       -2.5014843977        0.2086586843
 C         -5.7418476364       -2.8504112010        0.1275673690
 C         -6.6836439961       -1.8589143854       -0.0860969926
 F         -7.9844922805       -2.2156744417       -0.1723739952
 C         -6.3509566050       -0.5116525497       -0.2155580253
 C         -7.4113516152        0.5147084793       -0.4612574113
 C         -5.0100685895       -0.1826534411       -0.1209111172
 N         -2.3509419346        0.5167013643        0.0982219621
 C         -1.0835024625        0.8760293053        0.1068718626
 N         -0.7261683585        2.1437846334        0.0774297554
 N         -0.1015469413       -0.1044604386        0.1370330962
 C         -0.0434066068        4.8159582837       -0.0115217108
 C          0.3152593163        6.1479178400       -0.0506268410
 C          1.6582858756        6.4811164535       -0.0376070610
 F          1.9969356252        7.7889544149       -0.0777383930
 H          4.7663117820        5.0889050298        0.0235849892
 H          4.3161622853        6.5494296503        0.9188652557
 H          4.3295583846        6.5758816935       -0.8368282174
 H          3.0366061542        3.4184498811        0.0894244816
 H          1.3919441214       -4.5873260345        0.3880716005
 H          3.1658077648       -6.3519747386        0.2571883162
 H          6.6740328466       -2.1686409269       -0.4725519631
 H          7.1772292876       -3.7049945362        0.2568421883
 H          6.8389918321       -3.6252037945       -1.4647128703
 H          4.3479372616       -1.5878428091       -0.2502291337
 H         -3.6437101816       -3.2438305046        0.3656456747
 H         -6.0643351594       -3.8753933272        0.2220068856
 H         -7.8520150368        0.3674160756       -1.4472532009
 H         -6.9949796523        1.5162108828       -0.4087068846
 H         -8.2110903201        0.4187432312        0.2713574390
 H         -4.6910477396        0.8438980127       -0.2132741896
 H         -1.0777017282        4.5134534660       -0.0204028896
 H         -0.4248614089        6.9314756817       -0.0915256207
  55
  -101.492687917600       9.469695387566249E-002 !
 C         -0.3681359019        7.2009746775       -0.0365787725
 C          0.6522621553        6.1057436336       -0.0240765544
 C          0.2793905862        4.7709540758       -0.0160531374
 C          1.2314452737        3.7531866710        0.0070035268
 C          0.8041173633        2.3591678239        0.0113792664
 N          1.7579851243        1.4305427893        0.0145159762
 C          1.3887767348        0.1654371976        0.0122547356
 N          2.2730691250       -0.8112955712        0.0110429979
 C          1.8205814705       -2.0637087050        0.0067106844
 C          2.8120480249       -3.1322441200        0.0033857357
 C          2.4007042612       -4.4650833639        0.0014417342
 C          3.3450676369       -5.4712855857       -0.0026018248
 C          4.6866406704       -5.1317502563       -0.0052226414
 F          5.6018101386       -6.1262431907       -0.0095232700
 C          5.1355116149       -3.8121952968       -0.0035026420
 C          6.6004129916       -3.5091846590       -0.0087862846
 C          4.1719648296       -2.8188803067        0.0011100150
 N          0.5391658393       -2.4247110245        0.0037999712
 C         -0.3714813150       -1.4727482787        0.0047387852
 N         -1.6595143029       -1.7501295694        0.0007756066
 C         -2.5177606663       -0.7325863066        0.0040433900
 C         -3.9381893774       -1.0604965578       -0.0008429913
 C         -4.3466919814       -2.3938895983       -0.0268070980
 C         -5.6933564770       -2.6954670945       -0.0337021193
 C         -6.6124095800       -1.6610910568       -0.0130171721
 F         -7.9283044385       -1.9695124566       -0.0201894065
 C         -6.2423627835       -0.3175439631        0.0142345074
 C         -7.2835857685        0.7562936268        0.0387575324
 C         -4.8871692460       -0.0374640008        0.0192015888
 N         -2.1901938743        0.5580588814        0.0100061002
 C         -0.9099916154        0.8703583947        0.0106206422
 N         -0.5065539387        2.1248750267        0.0106946021
 N          0.0357304468       -0.1453844650        0.0094285972
 C          2.5908295301        4.0681958753        0.0221184232
 C          2.9839921302        5.3898574179        0.0161334636
 C          2.0168073695        6.3812115467       -0.0051520376
 F          2.4269015977        7.6695306505       -0.0122750554
 H         -0.7741814697        7.3404243370        0.9650365396
 H         -1.1901000306        6.9450465562       -0.7003316023
 H          0.0740823482        8.1399642565       -0.3582288081
 H         -0.7646924259        4.4985249991       -0.0293513268
 H          1.3459681165       -4.6861489159        0.0034649334
 H          3.0618930644       -6.5121198773       -0.0039245779
 H          7.0652644683       -3.9160015121       -0.9061345016
 H          6.7705269387       -2.4374156763        0.0238379666
 H          7.0850381032       -3.9742455071        0.8486344339
 H          4.4584691901       -1.7787604871        0.0031607037
 H         -3.5984218986       -3.1692889409       -0.0419042413
 H         -6.0439674931       -3.7153330706       -0.0549197117
 H         -7.9455465927        0.6599812304       -0.8208748160
 H         -6.8216500073        1.7387652831        0.0244538441
 H         -7.8970902700        0.6648218970        0.9344392745
 H         -4.5394114707        0.9836045233        0.0396477975
 H          3.3122033733        3.2679388817        0.0377492852
 H          4.0252711601        5.6697268919        0.0274540400
  55
  -101.492064914700       4.898055480440540E-002 !
 C          4.1284926237        5.9125030711       -0.0289068900
 C          2.6811866807        5.5291412878       -0.0174469337
 C          2.2922418780        4.1982756893       -0.0017464228
 C          0.9465206710        3.8368286746        0.0057030181
 C          0.5716142832        2.4277874525        0.0158710486
 N          1.5590554016        1.5344453963        0.0203810000
 C          1.2365302256        0.2568056836        0.0142676671
 N          2.1560491645       -0.6871552367        0.0156175386
 C          1.7492229884       -1.9549458350       -0.0055074538
 C          2.7778365359       -2.9879509082       -0.0066934151
 C          2.4131253776       -4.3334365516       -0.0596737069
 C          3.3911282835       -5.3066674023       -0.0628516765
 C          4.7196311214       -4.9224535993       -0.0093460943
 F          5.6675779641       -5.8856416544       -0.0133615358
 C          5.1222857463       -3.5893428877        0.0461687504
 C          6.5744234896       -3.2360371100        0.1150092867
 C          4.1253137670       -2.6292244717        0.0448232274
 N          0.4820276743       -2.3621168717       -0.0262421384
 C         -0.4629683096       -1.4442364927       -0.0171658721
 N         -1.7397922365       -1.7684607725       -0.0252891430
 C         -2.6348119344       -0.7831231362       -0.0049527300
 C         -4.0420811332       -1.1632235876       -0.0067556791
 C         -4.4008389748       -2.5095958183       -0.0704723421
 C         -5.7353360784       -2.8610916630       -0.0755034645
 C         -6.6918196659       -1.8628926883       -0.0143596083
 F         -7.9953402507       -2.2199678202       -0.0197459739
 C         -6.3718263234       -0.5078737802        0.0523489221
 C         -7.4524694056        0.5243796594        0.1191314168
 C         -5.0280824917       -0.1773792489        0.0537650948
 N         -2.3543398843        0.5183746174        0.0150612427
 C         -1.0864049320        0.8771370772        0.0133544315
 N         -0.7291576596        2.1457639720        0.0179337586
 N         -0.1043052086       -0.1030920251        0.0032318291
 C         -0.0417585163        4.8227819520       -0.0015465239
 C          0.3226507834        6.1521937436       -0.0168512155
 C          1.6682762158        6.4835375922       -0.0251267307
 F          1.9980157212        7.7948445685       -0.0410507302
 H          4.6087665602        5.5304340121       -0.9283260840
 H          4.6372380611        5.4805764525        0.8309634655
 H          4.2462392187        6.9922533833       -0.0016779582
 H          3.0359258838        3.4165134652        0.0041992701
 H          1.3671155078       -4.5894154493       -0.0992590640
 H          3.1441736367       -6.3557726503       -0.1059907418
 H          6.9804286195       -3.5146667502        1.0875855604
 H          7.1350255816       -3.7821525983       -0.6418841623
 H          6.7174021456       -2.1696112200       -0.0314145203
 H          4.3760769916       -1.5806020427        0.0834506723
 H         -3.6243221797       -3.2555319059       -0.1157131445
 H         -6.0482302309       -3.8921109941       -0.1255437048
 H         -7.0275480189        1.5229256184        0.1528753033
 H         -8.0674366250        0.3689033731        1.0048666998
 H         -8.1052428238        0.4433348803       -0.7491690850
 H         -4.7180900455        0.8548372844        0.1022345399
 H         -1.0773216306        4.5245951780        0.0043453642
 H         -0.4143536106        6.9398444663       -0.0231006650
