  146
       -190.21252673
 C         -3.0772710578       -6.3869701458        0.9465371007
 C         -1.8459903330       -6.8418139922        0.1484752741
 C         -1.2471262495       -8.1057831190        0.7800608521
 C         -2.2974889514       -7.1885902883       -1.2726488557
 C         -0.8226832367       -5.7192241127        0.1791551755
 C         -0.2924122474       -5.3048596420        1.4001978709
 C          0.5825171621       -4.2406824489        1.4887294337
 C          0.9520688244       -3.5508368716        0.3402894079
 N          1.7507189920       -2.3769024947        0.3953496045
 C          3.1173079687       -2.4699333407        0.5643846109
 C          3.6820606044       -3.7191848601        0.8320537577
 C          5.0343743900       -3.8469375348        1.0843629813
 C          5.8691281572       -2.7253768878        1.1010396554
 C          7.3395465356       -2.9012707496        1.4393793626
 C          8.1202378420       -1.5848112377        1.4082989656
 C          7.9785427915       -3.8564021685        0.4205533709
 C          7.4572933480       -3.4948644769        2.8508249085
 C          5.3048048446       -1.4988282829        0.7872392849
 C          3.9523783952       -1.3203205149        0.4572791656
 B          3.3140484522        0.0062767276        0.0065730194
 C          3.9472383390        1.3343631343       -0.4471794686
 C          5.2987559956        1.5164463851       -0.7789327653
 C          5.8580004462        2.7434007948       -1.1001236981
 C          7.3270076449        2.9228163071       -1.4426501661
 C          8.1186877377        1.6142749219       -1.3756166887
 C          7.4377700025        3.4789583096       -2.8697464605
 C          7.9590421699        3.9104777245       -0.4509098755
 C          5.0186049582        3.8615352878       -1.0906225727
 C          3.6674747232        3.7302967385       -0.8339760215
 C          3.1080133048        2.4805439033       -0.5577785274
 N          1.7421599151        2.3834134616       -0.3845540004
 C          0.9386907896        3.5540606037       -0.3340354720
 C          0.5699830689        4.2393431699       -1.4857713062
 C         -0.3096828858        5.2997710208       -1.4032848086
 C         -0.8459282478        5.7152470247       -0.1850170637
 C         -1.8739685598        6.8336636819       -0.1615856890
 C         -2.3262341298        7.1888663860        1.2571848084
 C         -1.2808467615        8.0956762091       -0.8024955820
 C         -3.1035319147        6.3677982781       -0.9558368477
 C         -0.4339428926        5.0445013466        0.9612899664
 C          0.4419168471        3.9773828296        0.8915955081
 C          1.0642527595        1.1850755431       -0.2113384902
 C         -0.3264331275        1.1693269180       -0.2886381205
 C         -1.0318978174       -0.0016599582        0.0049289622
 N         -2.4272612521       -0.0037395267        0.0040283347
 C         -3.2381991244       -0.9972426352       -0.5122178321
 C         -2.9159753781       -2.1713132698       -1.1769051493
 C         -3.9460080049       -2.9852748040       -1.6006570186
 C         -5.2988100998       -2.6731629589       -1.3984826320
 C         -6.3599223977       -3.6417334896       -1.9007372703
 C         -7.7820455669       -3.1712036517       -1.5834449395
 C         -6.2332578800       -3.7811216391       -3.4245232445
 C         -6.1546184061       -5.0104756734       -1.2363195614
 C         -5.6116388497       -1.4831169875       -0.7650178028
 C         -4.5945667386       -0.6425149128       -0.3280059770
 C         -4.5968597168        0.6336174775        0.3237662463
 C         -5.6170169549        1.4716405544        0.7584435564
 C         -5.3087698311        2.6605736027        1.3963414836
 C         -6.3736840854        3.6225014877        1.9034633866
 C         -7.7940587294        3.1463201175        1.5868823994
 C         -6.2446528508        3.7546120964        3.4278399194
 C         -6.1766197132        4.9956756918        1.2459065083
 C         -3.9572841699        2.9754524328        1.6026450510
 C         -2.9242147981        2.1637795229        1.1817306548
 C         -3.2417416845        0.9895982017        0.5149807570
 C         -0.3225366291       -1.1703051652        0.2994599339
 C          1.0683011111       -1.1809399874        0.2235711836
 C          1.8027803860        0.0034582499        0.0065978963
 C          0.4612616740       -3.9730249384       -0.8882914570
 C         -0.4096204907       -5.0434851336       -0.9640188796
 H         -3.8586495006       -7.1421191611        0.8946568717
 H         -2.8311646209       -6.2223630225        1.9920066577
 H         -3.4666257489       -5.4562026626        0.5385605971
 H         -0.9651665708       -7.9396805172        1.8158451337
 H         -0.3611910683       -8.4176211248        0.2306675587
 H         -1.9728015241       -8.9157487559        0.7526399977
 H         -2.7698376360       -6.3344319788       -1.7516962449
 H         -3.0260435807       -7.9958941679       -1.2345444310
 H         -1.4592591461       -7.5204000300       -1.8812770165
 H         -0.5786789552       -5.8070094501        2.3115481827
 H          0.9647050264       -3.9222292085        2.4474508283
 H          3.0603101233       -4.6019448680        0.8502729912
 H          5.4275001704       -4.8314943317        1.2853116014
 H          7.7152531977       -0.8714828130        2.1224542776
 H          8.1010112699       -1.1461665404        0.4135216498
 H          9.1595493486       -1.7725520214        1.6720687795
 H          9.0376643409       -3.9817512714        0.6371672429
 H          7.8765410772       -3.4540497391       -0.5853450886
 H          7.5083080736       -4.8354757855        0.4447096482
 H          6.9970094284       -2.8280543902        3.5771857155
 H          6.9649937840       -4.4612529850        2.9160079951
 H          8.5043798516       -3.6264556973        3.1167718880
 H          5.9168688046       -0.6149021342        0.8027761213
 H          5.9141961234        0.6347830882       -0.7897705411
 H          8.0988694089        1.2013740240       -0.3697670281
 H          9.1573674567        1.8043417384       -1.6402770066
 H          7.7233254168        0.8791673830       -2.0728807108
 H          6.9884659467        2.7857989520       -3.5780861229
 H          6.9303995149        4.4354447762       -2.9611397775
 H          8.4830446149        3.6191160383       -3.1382719488
 H          7.8501025775        3.5411994773        0.5669047829
 H          9.0196313150        4.0283761332       -0.6643724921
 H          7.4902337672        4.8888010550       -0.5100894043
 H          5.4071130006        4.8460444034       -1.3004869294
 H          3.0424563764        4.6106370117       -0.8560602312
 H          0.9563492433        3.9188616026       -2.4422486250
 H         -0.5958887464        5.7976086665       -2.3170969771
 H         -1.4888969939        7.5282627875        1.8628255503
 H         -3.0580131771        7.9929764569        1.2136208593
 H         -2.7950815852        6.3364973521        1.7427727930
 H         -1.0032386658        7.9249422929       -1.8387232849
 H         -0.3931268616        8.4122949578       -0.2586850169
 H         -2.0081793644        8.9041766346       -0.7760531396
 H         -3.4918565129        5.4411058810       -0.5377546496
 H         -3.8862130171        7.1222025445       -0.9138221289
 H         -2.8555277824        6.1913793373       -1.9989541610
 H         -0.8003267469        5.3360871012        1.9315997466
 H          0.7378141805        3.4531259277        1.7890531410
 H         -0.8774104856        2.0486312933       -0.5800688783
 H         -1.8918588960       -2.4460782101       -1.3777227664
 H         -3.6845690110       -3.8960795754       -2.1180093797
 H         -7.9286238044       -3.0684550778       -0.5106805345
 H         -8.4977272868       -3.9033020598       -1.9528075482
 H         -7.9963126988       -2.2204493085       -2.0658546754
 H         -6.3645284175       -2.8121817646       -3.9017571782
 H         -5.2586026810       -4.1690950172       -3.7077069641
 H         -6.9940356384       -4.4600665071       -3.8046061915
 H         -6.9297360920       -5.7035602632       -1.5572211573
 H         -5.1908816521       -5.4380768995       -1.4969515354
 H         -6.2044033133       -4.9139576433       -0.1535896130
 H         -6.6327334301       -1.1810673691       -0.6013265792
 H         -6.6369722145        1.1680394341        0.5905472585
 H         -8.0027140079        2.1927298232        2.0661585985
 H         -7.9421971090        3.0468779378        0.5140294069
 H         -8.5126384789        3.8735824949        1.9601902364
 H         -7.0128147959        4.4215758007        3.8142224427
 H         -6.3621761244        2.7812551769        3.8995603945
 H         -5.2742762679        4.1533491811        3.7104586870
 H         -6.9515598003        5.6845550724        1.5763901899
 H         -6.2335680071        4.9057837366        0.1629171117
 H         -5.2123542122        5.4245389002        1.5026123194
 H         -3.6991388369        3.8863583414        2.1215358154
 H         -1.9014165030        2.4404342289        1.3865640745
 H         -0.8707834779       -2.0517369639        0.5896816074
 H          0.7581293855       -3.4445476642       -1.7829582807
 H         -0.7718384608       -5.3338825392       -1.9362040457
