  65
       -101.52812011
 N        -10.4216230500       -0.0054003223        0.0703113186
 C         -9.2718592507        0.0139743600        0.0688647955
 C         -7.8665795062        0.0363291030        0.0660097763
 C         -7.1511960410       -0.2833891662        1.2275157671
 C         -5.7774254690       -0.2706781442        1.2154997851
 C         -5.0622263971        0.0805418775        0.0581609148
 C         -3.6116620475        0.1020731005        0.0557857155
 C         -2.8812116244       -1.0408388940        0.5101486506
 C         -3.5227260743       -2.2331943189        0.8599996486
 C         -2.8198505941       -3.3092587875        1.3913599103
 C         -1.4589319988       -3.2037905014        1.5940942992
 C         -0.7864635247       -2.0552256461        1.1926753867
 C         -1.4572122288       -0.9890386093        0.5827985950
 C         -0.7590356461        0.1456769352        0.0689935364
 C          0.6966163300        0.1644335961        0.0738999804
 C          1.3936895640        1.2419425319        0.6557752064
 C          2.7687558375        1.2930949707        0.6946029436
 C          3.4806971543        0.2511905443        0.1095155056
 C          2.8029752829       -0.8495131771       -0.4695042755
 C          1.4215635354       -0.8931204396       -0.4820244425
 C          3.8201507256       -1.7520143139       -0.9368448296
 C          3.7823658585       -2.9745187867       -1.5919964341
 C          4.9778951949       -3.5837508555       -1.9211137090
 C          6.1964080217       -2.9823220943       -1.6162421727
 C          6.2584137869       -1.7658341221       -0.9622505233
 C          5.0614000163       -1.1605226526       -0.6092277565
 N          4.8380634650        0.0500130881        0.0212079298
 C          5.8306721406        0.9278005122        0.4840950169
 C          6.8511676271        0.4565710407        1.3046768001
 C          7.8305040817        1.3236208634        1.7527143287
 C          7.7954404036        2.6615853905        1.3960671818
 C          6.7766425021        3.1325309451        0.5844988065
 C          5.7976338861        2.2716101722        0.1239729235
 C         -1.4871557289        1.2568857790       -0.4542284704
 C         -0.8419180521        2.3408140186       -1.0600575773
 C         -1.5450861585        3.4643868785       -1.4792378205
 C         -2.9111459787        3.5282490691       -1.2938608823
 C         -3.5866467589        2.4349350458       -0.7624559536
 C         -2.9128506792        1.2648532566       -0.3975894435
 C         -5.7942868479        0.4082040470       -1.0954471032
 C         -7.1678531539        0.3778306110       -1.0995320885
 H         -7.6902160482       -0.5337764299        2.1297095696
 H         -5.2311596186       -0.4924124660        2.1206997195
 H         -4.5867235491       -2.3288015392        0.7088225735
 H         -3.3470465992       -4.2136250048        1.6548938170
 H         -0.9073824193       -4.0135513695        2.0477352431
 H          0.2768768609       -1.9848364801        1.3622241026
 H          0.8218517788        2.0281186455        1.1263669044
 H          3.2766798160        2.1113914053        1.1826212162
 H          0.9034115126       -1.7161523188       -0.9504802723
 H          2.8370369657       -3.4319485114       -1.8417859997
 H          4.9718189995       -4.5354778636       -2.4306040726
 H          7.1141873431       -3.4754144204       -1.8996415835
 H          7.2077942190       -1.3003432101       -0.7447479888
 H          6.8614808678       -0.5826644063        1.5982153563
 H          8.6198652076        0.9535435336        2.3896585512
 H          8.5603341525        3.3357607609        1.7499560648
 H          6.7476583738        4.1739721739        0.3010807103
 H          5.0140563684        2.6290384264       -0.5277010910
 H          0.2257733140        2.3030812298       -1.2115888675
 H         -1.0143110705        4.2882313545       -1.9323881266
 H         -3.4631573926        4.4135085361       -1.5713033452
 H         -4.6548491218        2.4985739529       -0.6250469635
 H         -5.2606131080        0.6442864030       -2.0043762419
 H         -7.7197531854        0.6099704632       -1.9988597314
  65
       -101.52796477
 N        -10.4057831710       -0.2837598802       -0.0660071952
 C         -9.2584316225       -0.2175198938       -0.0265765386
 C         -7.8560491277       -0.1395557940        0.0249913778
 C         -7.2118199549        1.0997619095       -0.0839521017
 C         -5.8400680309        1.1691634505       -0.0448383197
 C         -5.0571128721        0.0147855341        0.1234468324
 C         -3.6086886957        0.0858329314        0.1614949423
 C         -2.8935906265       -0.5240031791        1.2403156347
 C         -3.5561049092       -1.0815598121        2.3384562950
 C         -2.8657782103       -1.7594328375        3.3376487467
 C         -1.4963495750       -1.9030940384        3.2453850320
 C         -0.8059928072       -1.3018103585        2.1992653844
 C         -1.4670816174       -0.5470877204        1.2234929656
 C         -0.7571071168        0.1564144368        0.2043210229
 C          0.6991887876        0.1590652827        0.1963133890
 C          1.4244121259        0.5485748545        1.3393431968
 C          2.8010862136        0.5559858715        1.3693382591
 C          3.4845295004        0.1507673983        0.2279256890
 C          2.7771194095       -0.2632266521       -0.9276579935
 C          1.3954404785       -0.2440906288       -0.9462631291
 C          3.7688450102       -0.6572227428       -1.8914549075
 C          3.6987588648       -1.1261534566       -3.1954730021
 C          4.8775042891       -1.3956564049       -3.8638414010
 C          6.1116502643       -1.1878995034       -3.2529100026
 C          6.2059069068       -0.7192782836       -1.9556600908
 C          5.0252326255       -0.4693297274       -1.2720436253
 N          4.8354899327        0.0190233599        0.0076348626
 C          5.8528019419        0.3154007701        0.9286302200
 C          5.8849454842        1.5552923689        1.5595331641
 C          6.8877830412        1.8397605539        2.4679917019
 C          7.8654964430        0.8989965673        2.7465638092
 C          7.8361026057       -0.3339968447        2.1160623918
 C          6.8326188598       -0.6311904426        1.2125278514
 C         -1.4728242368        0.8404434000       -0.8247227176
 C         -0.8165279157        1.6304231065       -1.7752300900
 C         -1.5018069708        2.2127648142       -2.8355128116
 C         -2.8601779961        2.0096393783       -2.9689382860
 C         -3.5483491425        1.2876438253       -1.9995700760
 C         -2.8955378801        0.7503151406       -0.8854708936
 C         -5.7190223227       -1.2186753207        0.2463962348
 C         -7.0889968402       -1.3009848224        0.1873764409
 H         -7.8041884015        1.9966467319       -0.1935430290
 H         -5.3503585592        2.1304364040       -0.0993554714
 H         -4.6272121033       -0.9805312400        2.4205810959
 H         -3.4086893975       -2.1822914488        4.1693282117
 H         -0.9527012755       -2.4660628805        3.9892381416
 H          0.2639145105       -1.4268162160        2.1372375958
 H          0.8751410764        0.8862097999        2.2058194913
 H          3.3306380563        0.8615962052        2.2590492875
 H          0.8538739630       -0.5828179409       -1.8165536484
 H          2.7419274458       -1.2728137923       -3.6732377055
 H          4.8460332626       -1.7653475404       -4.8776051796
 H          7.0158743906       -1.3939415627       -3.8057793541
 H          7.1670901155       -0.5440483874       -1.4964953292
 H          5.1329376280        2.2933649509        1.3223543749
 H          6.9096893068        2.8037189248        2.9539445230
 H          8.6488201361        1.1263121936        3.4533550936
 H          8.5938036479       -1.0718032837        2.3336455007
 H          6.7928839517       -1.5984996800        0.7337729692
 H          0.2457695349        1.7964353760       -1.6826218706
 H         -0.9623238783        2.8064961688       -3.5581292869
 H         -3.3970699732        2.4168656722       -3.8123001703
 H         -4.6093020283        1.1339559220       -2.1202809656
 H         -5.1314364370       -2.1197120544        0.3446689432
 H         -7.5853712529       -2.2578882330        0.2591435503
  65
       -101.52784649
 N        -10.3916462595        0.3212230215        0.5692019093
 C         -9.2482823745        0.2704145327        0.4559695405
 C         -7.8507910654        0.2080915124        0.3197308903
 C         -7.0471528531       -0.1040404785        1.4245610907
 C         -5.6820632754       -0.1669952666        1.2864907385
 C         -5.0606806708        0.1007747439        0.0547074227
 C         -3.6152194762        0.0640536128       -0.0624937648
 C         -2.8967979618       -1.0867621347        0.3937323496
 C         -3.5606656097       -2.2481476473        0.8004754722
 C         -2.8705706533       -3.3336365360        1.3296518039
 C         -1.4999284664       -3.2661991160        1.4754736185
 C         -0.8090989334       -2.1474057460        1.0244169671
 C         -1.4701155670       -1.0740772053        0.4160211541
 C         -0.7643119049        0.0362798405       -0.1373728128
 C          0.6905478363        0.0803106740       -0.0919743218
 C          1.3325646582        1.2001091796        0.4740502201
 C          2.7012379567        1.2833830484        0.5882693810
 C          3.4639177660        0.2236919296        0.1087143224
 C          2.8447591188       -0.8917893677       -0.5066058921
 C          1.4664389229       -0.9678002291       -0.5926764978
 C          3.9086129072       -1.7594896323       -0.9350930769
 C          3.9370472160       -2.9917639406       -1.5725008962
 C          5.1629601168       -3.5792345895       -1.8193376130
 C          6.3466748676       -2.9613240052       -1.4239716592
 C          6.3430294566       -1.7349805658       -0.7857510560
 C          5.1164390491       -1.1290247608       -0.5579962084
 N          4.8294374539        0.0686299843        0.0705658652
 C          5.7713023956        0.9644347976        0.6005470918
 C          6.8349404964        1.4051003638       -0.1809932294
 C          7.7619034197        2.2832037234        0.3498729858
 C          7.6315012620        2.7334689858        1.6532807569
 C          6.5700899272        2.2991362687        2.4301071304
 C          5.6432434532        1.4139881212        1.9115558801
 C         -1.4848040180        1.1283234290       -0.7103497996
 C         -0.8286679196        2.1556475514       -1.3969854542
 C         -1.5147488046        3.2702581635       -1.8658875549
 C         -2.8722399030        3.3827890873       -1.6445030222
 C         -3.5597387434        2.3442893771       -1.0254631970
 C         -2.9071500061        1.1780060199       -0.6125633105
 C         -5.8800392405        0.4114724125       -1.0432776751
 C         -7.2480692092        0.4561841839       -0.9202466969
 H         -7.5115366567       -0.2873735066        2.3826362966
 H         -5.0652343941       -0.3835297275        2.1464437950
 H         -4.6330211312       -2.3107970191        0.6970778633
 H         -3.4141661497       -4.2141854436        1.6368433933
 H         -0.9557340091       -4.0832248562        1.9251180287
 H          0.2613519792       -2.1066309910        1.1530093229
 H          0.7194746507        1.9992184083        0.8639172691
 H          3.1655749655        2.1496859605        1.0345506859
 H          0.9932004204       -1.8045543956       -1.0840494366
 H          3.0184800867       -3.4777852802       -1.8646155376
 H          5.2080097037       -4.5357192285       -2.3178016784
 H          7.2887671325       -3.4524671699       -1.6161603484
 H          7.2644501303       -1.2727094403       -0.4654091331
 H          6.9199548331        1.0684735482       -1.2036446560
 H          8.5856041705        2.6224673214       -0.2601466038
 H          8.3551918041        3.4214825340        2.0628294123
 H          6.4665880820        2.6444330547        3.4479085052
 H          4.8265353441        1.0548487201        2.5202512304
 H          0.2336966005        2.0798843182       -1.5713862744
 H         -0.9766145246        4.0500964932       -2.3835022381
 H         -3.4092770408        4.2648605758       -1.9590451844
 H         -4.6196433906        2.4505734280       -0.8554383408
 H         -5.4234735320        0.5733992488       -2.0087968330
 H         -7.8692755738        0.6770576197       -1.7761887896
  65
       -101.52773149
 N        -10.4224719909        0.1169521089        0.1313523709
 C         -9.2724566688        0.1117130731        0.1172922759
 C         -7.8669328864        0.1010531249        0.1006387766
 C         -7.1454735111        1.1017490364        0.7648637459
 C         -5.7718315570        1.0932392645        0.7369197280
 C         -5.0635662993        0.0808076004        0.0685412416
 C         -3.6120580948        0.0741605560        0.0549579633
 C         -2.8958152862       -1.0847255304        0.4925118749
 C         -3.5606425239       -2.1932928748        1.0272827196
 C         -2.8699711214       -3.3028005659        1.5014758487
 C         -1.4906818918       -3.2996677638        1.5010730129
 C         -0.8020789309       -2.1867762740        1.0329612260
 C         -1.4688258001       -1.0786968184        0.4974298549
 C         -0.7584219238        0.0830412076        0.0636924823
 C          0.6970815565        0.1009365191        0.0853589226
 C          1.3788031038        1.1249622541        0.7734019460
 C          2.7523817644        1.1904990730        0.8221618528
 C          3.4787096972        0.2164700629        0.1448265586
 C          2.8179145636       -0.8378621110       -0.5317283324
 C          1.4367140374       -0.8932962588       -0.5605905358
 C          3.8499239102       -1.6831338112       -1.0692318684
 C          3.8327316972       -2.8482190150       -1.8226097363
 C          5.0382262941       -3.4117678479       -2.1943012552
 C          6.2468049854       -2.8200892716       -1.8359226787
 C          6.2886315196       -1.6602402372       -1.0845799428
 C          5.0817619687       -1.1035068327       -0.6882331487
 N          4.8387569050        0.0452677477        0.0424566071
 C          5.8138291108        0.9121233601        0.5601050461
 C          5.7415523617        2.2767264362        0.2959522425
 C          6.7013359920        3.1297526504        0.8083682160
 C          7.7400533569        2.6307563060        1.5769114735
 C          7.8143422746        1.2725054081        1.8376424318
 C          6.8543371040        0.4122759244        1.3372038437
 C         -1.4741770350        1.2342691197       -0.3889623421
 C         -0.8099205588        2.3400969049       -0.9322876250
 C         -1.5020371606        3.4421675074       -1.4199339986
 C         -2.8814928015        3.4377932558       -1.4271907518
 C         -3.5689420359        2.3308041009       -0.9425824666
 C         -2.9002621989        1.2318928999       -0.3927956624
 C         -5.8009815945       -0.9203016639       -0.5847560697
 C         -7.1751267339       -0.9090122607       -0.5806027315
 H         -7.6796555911        1.8730631674        1.3005381783
 H         -5.2196080744        1.8524970055        1.2712328708
 H         -4.6369477234       -2.1847990235        1.0968325278
 H         -3.4189170161       -4.1487349754        1.8868544403
 H         -0.9395939141       -4.1453114269        1.8843363248
 H          0.2740262603       -2.1733787082        1.1057570117
 H          0.7947725348        1.8558556932        1.3130869978
 H          3.2490854740        1.9663711173        1.3852183127
 H          0.9311321993       -1.6730998376       -1.1097969674
 H          2.8953751538       -3.2978108289       -2.1133490645
 H          5.0477418668       -4.3191190853       -2.7790718828
 H          7.1726945929       -3.2755411469       -2.1538325644
 H          7.2302652049       -1.2006881951       -0.8250532372
 H          4.9421130173        2.6573083455       -0.3226316354
 H          6.6420612374        4.1872153091        0.5984826636
 H          8.4905705611        3.2988752838        1.9706730529
 H          8.6202143746        0.8803499928        2.4396158213
 H          6.8953196814       -0.6442633644        1.5569977189
 H          0.2670849544        2.3327171897       -0.9933105962
 H         -0.9539546205        4.2861251108       -1.8114330315
 H         -3.4326923624        4.2762056370       -1.8254182618
 H         -4.6451787782        2.3160444905       -1.0153282752
 H         -5.2726081256       -1.6850893601       -1.1349311823
 H         -7.7324559867       -1.6714028634       -1.1053192850
  65
       -101.52754101
 N        -10.3701870802       -0.5267694133       -0.2144287551
 C         -9.2288148262       -0.4017329424       -0.1495984520
 C         -7.8334540511       -0.2522076932       -0.0714865605
 C         -7.2459389842        0.3239261421        1.0623340317
 C         -5.8797649391        0.4510142781        1.1416200246
 C         -5.0482735126        0.0282163524        0.0914869912
 C         -3.6043198673        0.1490834639        0.1687486768
 C         -2.8908787376       -0.4088659434        1.2768483504
 C         -3.5478819692       -1.1265169393        2.2819631767
 C         -2.8563970117       -1.7112958023        3.3368891554
 C         -1.4795598381       -1.6387660693        3.3740797094
 C         -0.7944962331       -0.9893744392        2.3540539139
 C         -1.4651065997       -0.3430994305        1.3091908467
 C         -0.7546059311        0.2706733997        0.2318130743
 C          0.7014155396        0.2575489929        0.2120634414
 C          1.4479103202        0.7750678583        1.2887150904
 C          2.8244072233        0.7463498810        1.3092951032
 C          3.4844167809        0.1629257850        0.2328360756
 C          2.7571340039       -0.3286785079       -0.8788383198
 C          1.3763642672       -0.2773792402       -0.8886753473
 C          3.7314923122       -0.8092696355       -1.8207695229
 C          3.6365263314       -1.4033495603       -3.0710080902
 C          4.8010238273       -1.7741998260       -3.7153877411
 C          6.0441178792       -1.5718436887       -3.1212637222
 C          6.1630327775       -0.9800334214       -1.8773820026
 C          4.9986155620       -0.5832204264       -1.2366629781
 N          4.8309364310        0.0046530265        0.0042365416
 C          5.8603206738        0.3403091881        0.8972332995
 C          6.9406866788        1.1034461634        0.4647696557
 C          7.9572575498        1.4197097064        1.3470822651
 C          7.9007120996        0.9884508496        2.6621577850
 C          6.8220582780        0.2350676858        3.0951678977
 C          5.8050698444       -0.0940543504        2.2183830669
 C         -1.4696870483        0.8679912276       -0.8512164717
 C         -0.8101521013        1.6008155889       -1.8449339791
 C         -1.5056714284        2.2290871181       -2.8710559663
 C         -2.8844478066        2.1834881786       -2.8945709425
 C         -3.5685007670        1.5004814607       -1.8952335407
 C         -2.8936284801        0.8115658458       -0.8821267050
 C         -5.6543586553       -0.5280939073       -1.0477389676
 C         -7.0173540190       -0.6785281901       -1.1280033444
 H         -7.8775244056        0.6696834251        1.8678426884
 H         -5.4348482087        0.9235094397        2.0051337622
 H         -4.6176946817       -1.2537074752        2.2319366827
 H         -3.4015199406       -2.2369671670        4.1062114736
 H         -0.9266315083       -2.1040068641        4.1763727087
 H          0.2838927375       -1.0028649868        2.3622679638
 H          0.9167259418        1.2471262315        2.1021323223
 H          3.3734536233        1.1788816265        2.1323119957
 H          0.8181805175       -0.6830229335       -1.7189015233
 H          2.6713322049       -1.5747166058       -3.5230429910
 H          4.7503844707       -2.2372741782       -4.6892319007
 H          6.9358660921       -1.8872292129       -3.6418997231
 H          7.1304635297       -0.8430638083       -1.4186097565
 H          6.9693082782        1.4563767573       -0.5554607847
 H          8.7938752964        2.0113997100        1.0069205681
 H          8.6954450045        1.2388442940        3.3480998059
 H          6.7754349228       -0.1060516700        4.1185541434
 H          4.9734688354       -0.7011642168        2.5446119594
 H          0.2636035289        1.6993193728       -1.8053114564
 H         -0.9616558945        2.7688636953       -3.6316710362
 H         -3.4386406080        2.6890152690       -3.6709051488
 H         -4.6472235029        1.5232197092       -1.8947597241
 H         -5.0270395629       -0.8807476107       -1.8533437388
 H         -7.4702150067       -1.1307235880       -1.9984073399
  65
       -101.52734806
 N        -10.3536288239       -0.6224635098       -0.2601002417
 C         -9.2155398135       -0.4790186013       -0.1789103829
 C         -7.8238586935       -0.3066324354       -0.0836990152
 C         -7.2546719003        0.2302469801        1.0783663466
 C         -5.8915484668        0.3781547138        1.1736468457
 C         -5.0454679141        0.0158270519        0.1127059058
 C         -3.6039308057        0.1537334448        0.2046032964
 C         -2.8867212004       -0.4455120248        1.2884810781
 C         -3.5386525031       -1.2076254598        2.2636702024
 C         -2.8426047772       -1.8341648035        3.2913628271
 C         -1.4659653426       -1.7592145693        3.3280166675
 C         -0.7855391643       -1.0644550569        2.3350627478
 C         -1.4609684500       -0.3751708132        1.3212048645
 C         -0.7551372271        0.2869008201        0.2697523875
 C          0.7010691120        0.2744545671        0.2394315681
 C          1.4593876485        0.7372795668        1.3320264989
 C          2.8365438124        0.7087898271        1.3354078857
 C          3.4856133827        0.1972030094        0.2168341810
 C          2.7436612258       -0.2786129144       -0.8925946325
 C          1.3631653121       -0.2275928561       -0.8841871355
 C          3.7037168220       -0.7674680295       -1.8447827598
 C          3.5935161978       -1.3237947128       -3.1110850122
 C          4.7503185929       -1.6732786545       -3.7808594932
 C          6.0020160891       -1.4600627752       -3.2087807615
 C          6.1359821570       -0.9055881676       -1.9493826216
 C          4.9770452284       -0.5739706514       -1.2632610448
 N          4.8274495924        0.0089966784       -0.0181793772
 C          5.8718435155        0.3180835431        0.8677003687
 C          5.9669010295        1.5902932893        1.4231082555
 C          6.9966121097        1.8839952457        2.2981606022
 C          7.9385802137        0.9200991142        2.6176271477
 C          7.8466338157       -0.3453673907        2.0618411590
 C          6.8159879046       -0.6514258789        1.1927539972
 C         -1.4744136881        0.9279891107       -0.7849030836
 C         -0.8193310916        1.7030853753       -1.7490872547
 C         -1.5197416370        2.3746635268       -2.7440561904
 C         -2.8985418009        2.3281715262       -2.7643182141
 C         -3.5779404448        1.5992358862       -1.7945351538
 C         -2.8980072962        0.8679561123       -0.8151935526
 C         -5.6337682131       -0.4996409447       -1.0547948272
 C         -6.9930724261       -0.6707356320       -1.1520295513
 H         -7.8978869657        0.5291798316        1.8933322508
 H         -5.4614293368        0.8211797410        2.0599644940
 H         -4.6079665436       -1.3372761357        2.2103981421
 H         -3.3840805907       -2.3943057836        4.0386091455
 H         -0.9091635758       -2.2569063346        4.1078113387
 H          0.2929164015       -1.0766690185        2.3393516426
 H          0.9378804308        1.1599002603        2.1782176318
 H          3.3921266487        1.0681878557        2.1884061664
 H          0.7947727504       -0.6162715603       -1.7156778342
 H          2.6233268914       -1.4746222583       -3.5596896707
 H          4.6876816167       -2.1107628047       -4.7657789656
 H          6.8885887804       -1.7303340041       -3.7625473789
 H          7.1109432473       -0.7273245683       -1.5214778038
 H          5.2427592991        2.3449258612        1.1538305584
 H          7.0670515032        2.8726404904        2.7264654361
 H          8.7423732997        1.1542623108        3.2987197777
 H          8.5759907867       -1.1011911727        2.3116498971
 H          6.7269276044       -1.6425819713        0.7730007700
 H          0.2547697165        1.7988062686       -1.7107243212
 H         -0.9794494741        2.9476801789       -3.4826902612
 H         -3.4563184184        2.8665182323       -3.5155882596
 H         -4.6567763279        1.6181711435       -1.7900521042
 H         -4.9946945550       -0.8039485479       -1.8708045036
 H         -7.4317230454       -1.0920081266       -2.0449198586
  65
       -101.52687739
 N        -10.2993602050       -0.8935147677       -0.2514629871
 C         -9.1712597675       -0.6825933573       -0.1782647243
 C         -7.7896730465       -0.4400012916       -0.0878751290
 C         -7.2526868501        0.1658717401        1.0552641927
 C         -5.8980025652        0.3780141917        1.1511501086
 C         -5.0303402557        0.0134746205        0.1089199988
 C         -3.5946015829        0.2040037330        0.2060360327
 C         -2.8652541154       -0.3475489755        1.3068865993
 C         -3.5012490541       -1.0964112961        2.3027995675
 C         -2.7924274537       -1.6848990272        3.3439561320
 C         -1.4172631385       -1.5861220740        3.3739053676
 C         -0.7518841633       -0.9024393243        2.3632062320
 C         -1.4409972216       -0.2473063420        1.3361691820
 C         -0.7503224065        0.4071034860        0.2691055666
 C          0.7048100212        0.4009742207        0.2229475840
 C          1.4782605593        0.8641045542        1.3050629124
 C          2.8544353775        0.8047811043        1.3035057141
 C          3.4869932759        0.2630111958        0.1898566542
 C          2.7308932848       -0.1932746278       -0.9183716417
 C          1.3520876519       -0.1136197057       -0.9041876800
 C          3.6754566590       -0.7158869649       -1.8682401894
 C          3.5492481156       -1.2731722601       -3.1325492395
 C          4.6948170481       -1.6685441389       -3.7961792954
 C          5.9515530136       -1.5007686580       -3.2199297905
 C          6.1015446120       -0.9459774224       -1.9624566864
 C          4.9530992577       -0.5670803900       -1.2832585678
 N          4.8220549419        0.0279719751       -0.0421092527
 C          5.8659759440        0.2468890405        0.8714876537
 C          6.0414439222        1.4980443539        1.4534523628
 C          7.0629713309        1.6951962106        2.3646860239
 C          7.9158878392        0.6551079828        2.6945826681
 C          7.7454965963       -0.5890620240        2.1101394224
 C          6.7231864533       -0.7980700244        1.2036237186
 C         -1.4852984035        1.0156964265       -0.7941019931
 C         -0.8488881409        1.7941826648       -1.7677225727
 C         -1.5646596552        2.4254040351       -2.7781909344
 C         -2.9410431069        2.3322710544       -2.8067461291
 C         -3.6033332888        1.6015123219       -1.8265892320
 C         -2.9061274407        0.9144007531       -0.8276225896
 C         -5.5879063080       -0.5655192538       -1.0433979252
 C         -6.9376147733       -0.8017706426       -1.1399455744
 H         -7.9138073346        0.4657419368        1.8554146771
 H         -5.4931451323        0.8712801940        2.0227474096
 H         -4.5681141044       -1.2464437946        2.2557543905
 H         -3.3224832708       -2.2351910630        4.1065181986
 H         -0.8494178300       -2.0563598060        4.1627287790
 H          0.3264711407       -0.8980474020        2.3646751783
 H          0.9700289836        1.3093085858        2.1477498429
 H          3.4213074794        1.1604407765        2.1505889460
 H          0.7723357584       -0.4954489296       -1.7309344160
 H          2.5757872111       -1.3900427096       -3.5842253332
 H          4.6194962263       -2.1070880209       -4.7797452240
 H          6.8292360554       -1.8072548238       -3.7690130337
 H          7.0803876998       -0.8038116611       -1.5297208588
 H          5.3857818081        2.3109922067        1.1784423115
 H          7.1959167905        2.6673948605        2.8151180255
 H          8.7110789529        0.8129919240        3.4069206901
 H          8.4056837597       -1.4038675058        2.3670507719
 H          6.5717618520       -1.7710017290        0.7596834800
 H          0.2216067373        1.9234907440       -1.7251117005
 H         -1.0386946920        3.0025068304       -3.5239702397
 H         -3.5105698291        2.8364989225       -3.5727465785
 H         -4.6822558292        1.5833954370       -1.8295031579
 H         -4.9308789600       -0.8682749038       -1.8455911800
 H         -7.3517919532       -1.2725007263       -2.0197414672
  65
       -101.52558383
 N        -10.3717150169       -0.4106290227        0.3782026151
 C         -9.2297468147       -0.2922084480        0.3130821817
 C         -7.8329149731       -0.1533703286        0.2387738442
 C         -7.0614395462       -0.1513821760        1.4084258576
 C         -5.6942223398       -0.0433752107        1.3296646450
 C         -5.0437535660        0.0890647017        0.0913403446
 C         -3.5965770310        0.1771125110        0.0206676049
 C         -2.8003549426       -0.8313458014        0.6524511048
 C         -3.3711900154       -1.9532527474        1.2601671819
 C         -2.5932327281       -2.8999032161        1.9221600198
 C         -1.2241274303       -2.7449617105        1.9787088172
 C         -0.6229027246       -1.6717723172        1.3299472280
 C         -1.3781374998       -0.7282459107        0.6238740837
 C         -0.7576999821        0.3380969456       -0.0882323115
 C          0.7060743099        0.3789950584       -0.1448852474
 C          1.4177111138        1.4042304119        0.4975161476
 C          2.7941559974        1.3910671075        0.5859385664
 C          3.4815075153        0.3543626121       -0.0335970859
 C          2.7830924642       -0.6516498405       -0.7447253505
 C          1.4002186753       -0.6517180886       -0.7740111471
 C          3.7760104332       -1.5535886836       -1.2600657304
 C          3.7146104440       -2.6871353623       -2.0583746333
 C          4.8948339697       -3.3212777349       -2.3942837671
 C          6.1221844687       -2.8342149166       -1.9505717946
 C          6.2071731631       -1.7079911669       -1.1536657246
 C          5.0238033194       -1.0751836946       -0.8016656840
 N          4.8310791984        0.0768198578       -0.0619523505
 C          5.8196199140        0.7237251423        0.6973358605
 C          5.9874936973        2.1021953531        0.6233006352
 C          6.9493607551        2.7201924675        1.4024419139
 C          7.7517407485        1.9728819876        2.2483058308
 C          7.5905950055        0.5986453085        2.3161405736
 C          6.6267651550       -0.0267128023        1.5484347696
 C         -1.5444586253        1.3308631383       -0.7339255921
 C         -0.9513585043        2.3643603291       -1.4676424538
 C         -1.7175732865        3.3570314181       -2.0693904546
 C         -3.0904896097        3.3392565194       -1.9357184150
 C         -3.7078111543        2.3052518536       -1.2356482823
 C         -2.9688371882        1.2652184493       -0.6657161484
 C         -5.8324710674        0.1094338187       -1.0702462783
 C         -7.1989978085       -0.0220864234       -1.0035842632
 H         -7.5520091298       -0.2340065862        2.3674335111
 H         -5.1043043535       -0.0223773486        2.2344055465
 H         -4.4386883420       -2.1015658030        1.2118672013
 H         -3.0705806912       -3.7470668228        2.3908377930
 H         -0.6118724679       -3.4578658900        2.5102379747
 H          0.4496040246       -1.5619769585        1.3761505607
 H          0.8607770532        2.1927222913        0.9822854984
 H          3.3154586410        2.1538000696        1.1441435797
 H          0.8590675253       -1.4354534416       -1.2825551115
 H          2.7639111466       -3.0554353960       -2.4131109098
 H          4.8709804161       -4.2025821505       -3.0173489628
 H          7.0284896634       -3.3443521545       -2.2407688157
 H          7.1634973238       -1.3276288468       -0.8273575681
 H          5.3744853334        2.6797273669       -0.0525545969
 H          7.0770662763        3.7907034083        1.3429234482
 H          8.5028244170        2.4590348503        2.8519896815
 H          8.2119824034        0.0109438908        2.9752838179
 H          6.4812993160       -1.0951638503        1.6125005257
 H          0.1232610449        2.3861610212       -1.5683594876
 H         -1.2319192919        4.1431583959       -2.6278953536
 H         -3.6947704540        4.1197293246       -2.3729793836
 H         -4.7814235743        2.3176040229       -1.1286674047
 H         -5.3468622753        0.1803623912       -2.0325286040
 H         -7.7944182694       -0.0301486432       -1.9050960141
