  65
  -101.139849167800       0.172672191290670      !
 N        -10.4062775958       -0.0451682372        0.2693444822
 C         -9.2588398443       -0.0129615678        0.2007338039
 C         -7.8563632663        0.0301450794        0.1193976025
 C         -7.2092688910       -0.2413284535       -1.0931943607
 C         -5.8374241521       -0.2094798676       -1.1644508184
 C         -5.0572357666        0.1119204186       -0.0410920217
 C         -3.6087139402        0.1426226207       -0.1136859562
 C         -2.8964606391        1.2940675991        0.3489036172
 C         -3.5617274740        2.4554118222        0.7543750928
 C         -2.8742833481        3.5369272970        1.2949240701
 C         -1.5050452696        3.4668516646        1.4522848369
 C         -0.8119128716        2.3513076039        0.9966207335
 C         -1.4699835334        1.2828485104        0.3768508905
 C         -0.7570471384        0.1804723105       -0.1836657783
 C          0.6992608394        0.1746225563       -0.1823373603
 C          1.4237392336        1.2570177226       -0.7187471837
 C          2.8003830335        1.2880685750       -0.7273415600
 C          3.4845298352        0.2117215677       -0.1727789702
 C          2.7778285119       -0.8798350486        0.3896009289
 C          1.3962221460       -0.9031305338        0.3703609477
 C          3.7700331892       -1.7811136386        0.9100659704
 C          3.7007405405       -3.0114272365        1.5478733496
 C          4.8798246924       -3.6361128757        1.9060874560
 C          6.1135687082       -3.0561149201        1.6214921875
 C          6.2070405440       -1.8324279750        0.9849383623
 C          5.0259634099       -1.1900358569        0.6440766880
 N          4.8355046332        0.0131393989       -0.0102648268
 C          5.8521766683        0.8883234196       -0.4243018356
 C          5.8861557687        1.3490416140       -1.7369278582
 C          6.8883448118        2.2133570958       -2.1375250358
 C          7.8636048166        2.6160269643       -1.2401468025
 C          7.8323899647        2.1547953072        0.0655942823
 C          6.8295199795        1.2970489838        0.4781489647
 C         -1.4698264343       -0.9314900325       -0.7264024191
 C         -0.8104744394       -1.9773834771       -1.3818556305
 C         -1.4929949482       -3.1067536570       -1.8195969347
 C         -2.8516201374       -3.2142984008       -1.6032503015
 C         -3.5427242341       -2.1587924559       -1.0177469627
 C         -2.8926479257       -0.9821143452       -0.6318310846
 C         -5.7220170831        0.3964684484        1.1637999140
 C         -7.0920849094        0.3466072501        1.2504969776
 H         -7.7995173077       -0.4700416801       -1.9687570364
 H         -5.3455341253       -0.3903452720       -2.1089957272
 H         -4.6327243677        2.5215993282        0.6412082065
 H         -3.4192803449        4.4164837894        1.6025136423
 H         -0.9636707972        4.2797852895        1.9125645798
 H          0.2578035578        2.3082211265        1.1308812851
 H          0.8740000086        2.0700631705       -1.1695476887
 H          3.3293604558        2.1302024107       -1.1473439810
 H          0.8551304193       -1.7216382676        0.8205841188
 H          2.7442580777       -3.4670868753        1.7547799040
 H          4.8489592096       -4.5918569118        2.4070661176
 H          7.0181102687       -3.5752115626        1.9009244004
 H          7.1679633450       -1.3989901030        0.7521940027
 H          5.1360986702        1.0146926249       -2.4384589213
 H          6.9116844951        2.5670342394       -3.1574336135
 H          8.6464370849        3.2876833949       -1.5577528490
 H          8.5881681725        2.4696963824        0.7694751199
 H          6.7883343226        0.9509211375        1.5003874479
 H          0.2520538502       -1.9058618884       -1.5565854948
 H         -0.9512039355       -3.9009098341       -2.3110356020
 H         -3.3864405994       -4.1051663803       -1.8959392727
 H         -4.6038417248       -2.2598021385       -0.8514976581
 H         -5.1365445053        0.6145070494        2.0449712498
 H         -7.5906543655        0.5439784047        2.1884070679
  65
  -101.139845666100       0.172033541771756      !
 N        -10.4216978791        0.0529517856       -0.0246833369
 C         -9.2718934916        0.0508708279       -0.0414107120
 C         -7.8665655256        0.0474260473       -0.0603972164
 C         -7.1535066432        1.2422984796        0.1036647885
 C         -5.7796960817        1.2310017397        0.0953905430
 C         -5.0621140545        0.0384721744       -0.0976062110
 C         -3.6115041104        0.0356881636       -0.1157502687
 C         -2.8841945818        0.6390216853        0.9581495571
 C         -3.5288077049        1.1430370726        2.0922088062
 C         -2.8290340702        1.8137627632        3.0895734922
 C         -1.4681720491        2.0029750525        2.9608199138
 C         -0.7926289501        1.4537154939        1.8770728596
 C         -1.4601879338        0.7065342228        0.8999886904
 C         -0.7588102433        0.0477661685       -0.1550561104
 C          0.6968710647        0.0525762679       -0.1714070627
 C          1.3954902942        0.4873780743       -1.3152575512
 C          2.7706097881        0.5213720717       -1.3683820025
 C          3.4810828464        0.0810182210       -0.2565955563
 C          2.8017601090       -0.3478408952        0.9099034797
 C          1.4202749632       -0.3567729301        0.9520434199
 C          3.8176072901       -0.6894915614        1.8684913492
 C          3.7780588339       -1.1765619818        3.1670932252
 C          4.9727088555       -1.4198593949        3.8170085913
 C          6.1921096053       -1.1955137499        3.1828417674
 C          6.2558673157       -0.7087534901        1.8904052379
 C          5.0596908984       -0.4412441882        1.2411982077
 N          4.8381271029        0.0224812984       -0.0427773789
 C          5.8320093291        0.3663657128       -0.9722873735
 C          6.8503232467        1.2439645381       -0.6121765811
 C          7.8309305041        1.5745345891       -1.5290984761
 C          7.7992962921        1.0433141173       -2.8079181708
 C          6.7826667473        0.1746894069       -3.1689411457
 C          5.8024181919       -0.1690717318       -2.2564349345
 C         -1.4837627587       -0.6196025960       -1.1883847128
 C         -0.8353065842       -1.3629239818       -2.1809767247
 C         -1.5354253809       -1.9287726381       -3.2403267151
 C         -2.9015994944       -1.7558060830       -3.3309538812
 C         -3.5802353235       -1.0850539518       -2.3192360125
 C         -2.9095145203       -0.5669110142       -1.2066347268
 C         -5.7918434887       -1.1496550761       -0.2706236948
 C         -7.1654660021       -1.1519708798       -0.2427049326
 H         -7.6943330503        2.1688480629        0.2309545148
 H         -5.2351817140        2.1585434962        0.1960374668
 H         -4.5927999865        1.0041132000        2.2049317295
 H         -3.3585776521        2.1941738465        3.9498844856
 H         -0.9190318382        2.5610528805        3.7042604795
 H          0.2706253429        1.6141959822        1.7869035814
 H          0.8247198673        0.8484441945       -2.1580981393
 H          3.2796435238        0.8972533762       -2.2432280222
 H          0.9009755297       -0.7126533622        1.8289647812
 H          2.8320796844       -1.3649782492        3.6517645103
 H          4.9652588501       -1.7984633312        4.8279513223
 H          7.1092011736       -1.4093860892        3.7110233921
 H          7.2059607312       -0.5534019551        1.4020398533
 H          6.8579497140        1.6729245313        0.3788918940
 H          8.6185888526        2.2563029730       -1.2453162420
 H          8.5651704407        1.3058229006       -3.5215974727
 H          6.7563601580       -0.2445639551       -4.1635769141
 H          5.0205362843       -0.8637500269       -2.5257125853
 H          0.2325100751       -1.5063142137       -2.1213346927
 H         -1.0022144056       -2.4864217442       -3.9956416462
 H         -3.4512821322       -2.1492726900       -4.1726238118
 H         -4.6484865017       -0.9591019616       -2.4026802788
 H         -5.2563852682       -2.0809896831       -0.3828514215
 H         -7.7155999328       -2.0750835885       -0.3544562211
  65
  -101.139741114300       0.154015507079736      !
 N        -10.3881434133        0.6331479932       -0.3147809861
 C         -9.2454894510        0.5136147307       -0.2624573114
 C         -7.8488490445        0.3696823592       -0.1983781791
 C         -7.0359787767        1.4811156729        0.0621375490
 C         -5.6717505301        1.3356268546        0.1270265126
 C         -5.0604428470        0.0885344651       -0.0878472774
 C         -3.6157782528       -0.0378752743       -0.0503317742
 C         -2.8901385461        0.4633436168        1.0769992614
 C         -3.5470746104        0.9260688029        2.2212444013
 C         -2.8494366726        1.4974899536        3.2801702451
 C         -1.4779814455        1.6297987153        3.2022166484
 C         -0.7942713799        1.1244840114        2.1024013241
 C         -1.4633802865        0.4742406633        1.0590416207
 C         -0.7654292571       -0.1330486335       -0.0278624835
 C          0.6895723703       -0.1006649167       -0.0782426681
 C          1.3320301105        0.4104025826       -1.2239198206
 C          2.7012285653        0.5104550667       -1.3162899663
 C          3.4638625948        0.0724699535       -0.2387199265
 C          2.8438813071       -0.4882076700        0.9047566701
 C          1.4652212657       -0.5603880717        0.9886544799
 C          3.9074167099       -0.8859487959        1.7873575673
 C          3.9352333528       -1.4684326612        3.0465382493
 C          5.1612355873       -1.6983271727        3.6406591150
 C          6.3457834143       -1.3396541758        3.0022952174
 C          6.3427807298       -0.7562838488        1.7489289086
 C          5.1158972942       -0.5462643632        1.1371874703
 N          4.8295720070        0.0308725823       -0.0862371741
 C          5.7723492693        0.5135676013       -1.0074496820
 C          6.8286669526       -0.2947320224       -1.4163042952
 C          7.7566084907        0.1897428372       -2.3198270243
 C          7.6343953366        1.4729127990       -2.8269307031
 C          6.5802481105        2.2762062822       -2.4242008300
 C          5.6525381489        1.8043446588       -1.5141855202
 C         -1.4938109329       -0.7482859243       -1.0913068507
 C         -0.8462387043       -1.4846343067       -2.0892142726
 C         -1.5395119823       -1.9971602507       -3.1799123501
 C         -2.8956884042       -1.7706912330       -3.2980381263
 C         -3.5750875287       -1.1011387618       -2.2858805661
 C         -2.9155488012       -0.6420196686       -1.1409816313
 C         -5.8889772571       -1.0158781120       -0.3471856139
 C         -7.2561965859       -0.8845844464       -0.3931751756
 H         -7.4926104089        2.4498519836        0.2042956623
 H         -5.0478238912        2.1996170785        0.3034372354
 H         -4.6199536751        0.8336699962        2.2916386256
 H         -3.3877842799        1.8474326878        4.1478977666
 H         -0.9277286117        2.1110005619        3.9969023503
 H          0.2769636453        1.2430340260        2.0527510900
 H          0.7191858275        0.7691809970       -2.0376465357
 H          3.1659701434        0.9144568598       -2.2028870636
 H          0.9911443746       -1.0106754445        1.8477539872
 H          3.0161507949       -1.7317998602        3.5477749674
 H          5.2057773855       -2.1543299101        4.6181233271
 H          7.2880585044       -1.5170656070        3.4986204885
 H          7.2650060653       -0.4636890602        1.2701614085
 H          6.9072010834       -1.3021102155       -1.0350136487
 H          8.5746113100       -0.4409065630       -2.6342460715
 H          8.3588051705        1.8461389754       -3.5345699885
 H          6.4831620201        3.2784959366       -2.8138825986
 H          4.8415843861        2.4344971870       -1.1798727021
 H          0.2150472746       -1.6635571524       -2.0090096993
 H         -1.0078530119       -2.5528188494       -3.9377009386
 H         -3.4379972602       -2.1198577726       -4.1637052692
 H         -4.6340483575       -0.9279558938       -2.3963897047
 H         -5.4401471939       -1.9910449587       -0.4676056544
 H         -7.8844852563       -1.7447264745       -0.5740848941
  65
  -101.139648508100       0.139638632554329      !
 N        -10.4218131416        0.1370528498       -0.1608757318
 C         -9.2718490727        0.1215183895       -0.1507913073
 C         -7.8663981708        0.1035277453       -0.1342935647
 C         -7.1408284889        0.6523679736       -1.1998515349
 C         -5.7672779099        0.6229780850       -1.1843420590
 C         -5.0631718075        0.0686447330       -0.1025211486
 C         -3.6117193758        0.0531791169       -0.0902162834
 C         -2.8976340515        0.6141587373        1.0156128908
 C         -3.5642655847        1.2687983976        2.0567401566
 C         -2.8755401232        1.8608138528        3.1093884198
 C         -1.4962515504        1.8575076657        3.1103145523
 C         -0.8056886004        1.2686033166        2.0576300646
 C         -1.4706262420        0.6157341433        1.0132139156
 C         -0.7580574382        0.0555850603       -0.0917366361
 C          0.6975321896        0.0724497952       -0.1076888786
 C          1.3834782381        0.6424725474       -1.1991687258
 C          2.7573296173        0.6811808523       -1.2656893616
 C          3.4795816368        0.1136894391       -0.2210011806
 C          2.8145056664       -0.4416217848        0.8993989534
 C          1.4331025566       -0.4616495805        0.9536686569
 C          3.8430843679       -0.8848526719        1.8016238839
 C          3.8211449608       -1.5055399493        3.0424152774
 C          5.0243204001       -1.8152592604        3.6469001044
 C          6.2352503964       -1.5263477639        3.0229130164
 C          6.2818055667       -0.9071533557        1.7876211281
 C          5.0772903092       -0.5721764218        1.1871959238
 N          4.8389412437        0.0282367115       -0.0356433171
 C          5.8174469815        0.4456327456       -0.9513241772
 C          5.7482495147        0.0331902336       -2.2788199671
 C          6.7114184471        0.4469343371       -3.1802243677
 C          7.7504580782        1.2637486214       -2.7657356171
 C          7.8216772891        1.6720879363       -1.4441714660
 C          6.8582934698        1.2710409371       -0.5369248657
 C         -1.4717082370       -0.5195628663       -1.1882925511
 C         -0.8056733047       -1.1824028446       -2.2257580935
 C         -1.4958929685       -1.7869696454       -3.2695395783
 C         -2.8753678499       -1.7911398075       -3.2683902145
 C         -3.5647255880       -1.1864900387       -2.2233824657
 C         -2.8977996112       -0.5204634270       -1.1896405365
 C         -5.8046747705       -0.4692590235        0.9622001099
 C         -7.1787725846       -0.4638202179        0.9465418391
 H         -7.6717846789        1.1009873310       -2.0269242508
 H         -5.2118701681        1.0695524176       -1.9961346633
 H         -4.6403911668        1.3389913847        2.0375339131
 H         -3.4259117330        2.3378778287        3.9062349128
 H         -0.9465996005        2.3303944356        3.9102912814
 H          0.2706036087        1.3374864060        2.0394282950
 H          0.8025744020        1.0996146611       -1.9866512342
 H          3.2573245684        1.1546007244       -2.0973162339
 H          0.9242489868       -0.9208546823        1.7876548919
 H          2.8819620009       -1.7433471428        3.5185271887
 H          5.0301430103       -2.2967467581        4.6130622998
 H          7.1592280761       -1.7939765930        3.5132340630
 H          7.2252247368       -0.7014725027        1.3050531599
 H          4.9484942575       -0.6219997245       -2.5914051819
 H          6.6545186925        0.1221731601       -4.2083709098
 H          8.5036103679        1.5802752787       -3.4709162518
 H          8.6277983536        2.3120285809       -1.1182382307
 H          6.8969250697        1.6055828097        0.4891616429
 H          0.2711740217       -1.2442444877       -2.2085945996
 H         -0.9464032426       -2.2698980156       -4.0637509043
 H         -3.4251831135       -2.2781048179       -4.0595347533
 H         -4.6411528830       -1.2551734653       -2.2038327883
 H         -5.2795410809       -0.9329978699        1.7843632859
 H         -7.7392736780       -0.9005022402        1.7603785085
  65
  -101.139522173300       0.122164812584020      !
 N        -10.3693316222       -0.1355897464        0.5681750727
 C         -9.2281177370       -0.0858251694        0.4350508284
 C         -7.8329450380       -0.0258177028        0.2757297552
 C         -7.2439711296        1.0481119776       -0.4042982311
 C         -5.8779248043        1.1114486304       -0.5413204559
 C         -5.0480757469        0.1026587323       -0.0249785638
 C         -3.6042397235        0.1643375334       -0.1557975977
 C         -2.8865193828        1.3173438800        0.2954723330
 C         -3.5390938492        2.3864493896        0.9184426273
 C         -2.8433986176        3.4890574796        1.4014023878
 C         -1.4666590854        3.5155031499        1.3225786026
 C         -0.7858891535        2.4377943066        0.7688907804
 C         -1.4608405144        1.3394513310        0.2237193868
 C         -0.7546911842        0.2078648987       -0.2892488590
 C          0.7013030927        0.1853263944       -0.2776945189
 C          1.4492571978        1.2073155998       -0.8944292492
 C          2.8258713435        1.2266008774       -0.8709014943
 C          3.4845806307        0.2069573390       -0.1917921808
 C          2.7556819223       -0.8523581334        0.4023394399
 C          1.3747652324       -0.8630261626        0.3553422440
 C          3.7288236609       -1.7484601122        0.9658753629
 C          3.6321404795       -2.9380280707        1.6734249402
 C          4.7959095727       -3.5485571443        2.0996938928
 C          6.0400153575       -2.9792233518        1.8403215601
 C          6.1606366524       -1.7958419349        1.1355657135
 C          4.9968722727       -1.1913626725        0.6837846126
 N          4.8309037425       -0.0097810490       -0.0161171088
 C          5.8617339688        0.8453933327       -0.4354093804
 C          6.9390322820        0.3410730676       -1.1576856196
 C          7.9570709924        1.1874414338       -1.5566496253
 C          7.9050220405        2.5369614355       -1.2489291609
 C          6.8294124759        3.0409175958       -0.5364193230
 C          5.8110032298        2.2012453714       -0.1251632089
 C         -1.4740869645       -0.9238209464       -0.7820362862
 C         -0.8189899850       -1.9829906670       -1.4211761972
 C         -1.5187558759       -3.0609357260       -1.9501003212
 C         -2.8974678360       -3.0762535854       -1.8993537675
 C         -3.5771949944       -2.0160334777       -1.3102814584
 C         -2.8979552229       -0.9453726292       -0.7197211578
 C         -5.6556840516       -0.9784369921        0.6358544509
 C         -7.0184947994       -1.0405943896        0.7962057179
 H         -7.8743514194        1.8199041771       -0.8217307770
 H         -5.4319828521        1.9262341608       -1.0927901871
 H         -4.6087049273        2.3514234546        1.0521761224
 H         -3.3851916115        4.3052893051        1.8548030708
 H         -0.9104767239        4.3558825841        1.7102335769
 H          0.2925482959        2.4441937177        0.7790864945
 H          0.9189761313        1.9750021476       -1.4385826279
 H          3.3759393968        2.0044728156       -1.3790676581
 H          0.8154727977       -1.6505411165        0.8374247862
 H          2.6662210308       -3.3695348767        1.8881419924
 H          4.7439333287       -4.4751783473        2.6510977951
 H          6.9312154775       -3.4709123690        2.2005284533
 H          7.1288977052       -1.3544471083        0.9544689172
 H          6.9641188626       -0.7075371323       -1.4146616181
 H          8.7912976975        0.7915902738       -2.1162065555
 H          8.7008845628        3.1945281715       -1.5636076579
 H          6.7863023379        4.0916266077       -0.2914547371
 H          4.9817964911        2.5846377960        0.4510263013
 H          0.2546101457       -1.9556780009       -1.5253916994
 H         -0.9780836864       -3.8698011039       -2.4183495315
 H         -3.4549501646       -3.8945137459       -2.3295233423
 H         -4.6559673053       -2.0146380020       -1.3304890656
 H         -5.0295527511       -1.7496741525        1.0601724478
 H         -7.4724504486       -1.8640984160        1.3281194840
  65
  -101.139374843900       0.104529344939829      !
 N        -10.3549212460       -0.1993345966        0.6233895146
 C         -9.2165843220       -0.1367020452        0.4727872522
 C         -7.8245985263       -0.0636824068        0.2922264275
 C         -7.2569895244        1.0064139771       -0.4115652801
 C         -5.8936467391        1.0830835948       -0.5680222568
 C         -5.0456939407        0.0916085666       -0.0477505640
 C         -3.6039631723        0.1667082290       -0.1935757015
 C         -2.8920656464        1.3308337347        0.2380369908
 C         -3.5495407691        2.4072624273        0.8428947197
 C         -2.8587335664        3.5198722709        1.3098752987
 C         -1.4819556934        3.5495978392        1.2344017695
 C         -0.7961683587        2.4658315002        0.6988886466
 C         -1.4661794041        1.3575366346        0.1678585287
 C         -0.7549279205        0.2209394546       -0.3264663155
 C          0.7013096159        0.1978670675       -0.3052279989
 C          1.4579959283        1.2110707642       -0.9247937819
 C          2.8350282138        1.2234562367       -0.8929993861
 C          3.4856221195        0.1967641426       -0.2170922729
 C          2.7453065917       -0.8310722440        0.4178969952
 C          1.3649782602       -0.8352018753        0.3620459136
 C          3.7064692874       -1.6956140979        1.0472474194
 C          3.5980828216       -2.8642518356        1.7873171206
 C          4.7556392960       -3.4698664670        2.2370087807
 C          6.0063715991       -2.9320254288        1.9439602658
 C          6.1385372658       -1.7698526956        1.2068310727
 C          4.9787354690       -1.1453980527        0.7723382754
 N          4.8274842763       -0.0026427594        0.0083411961
 C          5.8703193695        0.8302998311       -0.4272938459
 C          5.9681686367        1.1884432407       -1.7682600308
 C          6.9962994558        2.0129439482       -2.1871012411
 C          7.9339469843        2.4769537753       -1.2793730177
 C          7.8392334524        2.1174334716        0.0549928161
 C          6.8101070080        1.3006846753        0.4851502900
 C         -1.4688329065       -0.9205942844       -0.8038460176
 C         -0.8081938464       -1.9880842580       -1.4231841579
 C         -1.5033036775       -3.0751292280       -1.9396247495
 C         -2.8821915495       -3.0929355574       -1.8947569569
 C         -3.5670019225       -2.0269346339       -1.3219693412
 C         -2.8925312726       -0.9464339158       -0.7442179182
 C         -5.6323254174       -0.9871466213        0.6356330866
 C         -6.9919241400       -1.0622488907        0.8153186163
 H         -7.9015709155        1.7649439194       -0.8315689133
 H         -5.4646139157        1.8941987707       -1.1379833276
 H         -4.6191380793        2.3703938734        0.9758685186
 H         -3.4043737649        4.3409658130        1.7496629787
 H         -0.9292084058        4.3972757258        1.6108558392
 H          0.2822205644        2.4756348649        0.7135585961
 H          0.9354601456        1.9822949807       -1.4714079290
 H          3.3893303940        2.0146378501       -1.3748977629
 H          0.7977005475       -1.6007624448        0.8696195855
 H          2.6287073883       -3.2884303262        2.0009669643
 H          4.6943964430       -4.3780251924        2.8174217216
 H          6.8936336788       -3.4357950206        2.2970853726
 H          7.1128415428       -1.3702471332        0.9691839776
 H          5.2474661664        0.8062669068       -2.4759967343
 H          7.0689181868        2.2879786041       -3.2286907076
 H          8.7365294656        3.1178716094       -1.6108674959
 H          8.5652046733        2.4805593905        0.7668502033
 H          6.7188334501        1.0344175230        1.5278802884
 H          0.2661159845       -1.9608373959       -1.5203579491
 H         -0.9588277206       -3.8896484135       -2.3934401572
 H         -3.4358563803       -3.9185290564       -2.3156954818
 H         -4.6457737118       -2.0290776773       -1.3446042362
 H         -4.9919010510       -1.7459146848        1.0610948435
 H         -7.4293929705       -1.8831619413        1.3647371881
  65
  -101.139002604000       7.049667198577275E-002 !
 N        -10.3008335946       -0.1551288905        0.8984348562
 C         -9.1724221545       -0.1100961439        0.6813724280
 C         -7.7905013161       -0.0518326856        0.4309663119
 C         -7.2560069570        0.9887495618       -0.3395583022
 C         -5.9010936817        1.0569401281       -0.5607552815
 C         -5.0306476854        0.0853034340       -0.0409317670
 C         -3.5947459302        0.1583045364       -0.2407701817
 C         -2.8709798875        1.3328156230        0.1396460529
 C         -3.5127104518        2.4279033733        0.7279416244
 C         -2.8093550716        3.5489069321        1.1538466526
 C         -1.4340382567        3.5691378453        1.0547249816
 C         -0.7630524451        2.4694050926        0.5331600873
 C         -1.4465644699        1.3523643803        0.0392851105
 C         -0.7501588211        0.2014423134       -0.4447667989
 C          0.7051099006        0.1626216842       -0.4285059309
 C          1.4758895445        1.1654138525       -1.0481797422
 C          2.8518892635        1.1784028161       -0.9862532782
 C          3.4869982302        0.1620081075       -0.2809613146
 C          2.7336836842       -0.8675612540        0.3359325417
 C          1.3550639248       -0.8711525376        0.2519937152
 C          3.6802491173       -1.7236937211        0.9982202135
 C          3.5571075838       -2.8897368996        1.7399427624
 C          4.7039853773       -3.4813433677        2.2336279520
 C          5.9590691759       -2.9320021202        1.9834555248
 C          6.1060115416       -1.7722431809        1.2452844429
 C          4.9561542337       -1.1627689822        0.7655249719
 N          4.8222361912       -0.0263675687       -0.0105995913
 C          5.8634160116        0.8478516221       -0.3627933384
 C          6.0402572679        1.2347116215       -1.6871528301
 C          7.0589914101        2.1097942323       -2.0175239215
 C          7.9077779849        2.5965616310       -1.0373704959
 C          7.7360420483        2.2062162254        0.2804699046
 C          6.7164747018        1.3375863083        0.6218459246
 C         -1.4795313027       -0.9445034336       -0.8872705010
 C         -0.8373840133       -2.0220313371       -1.5082184491
 C         -1.5476818285       -3.1191871754       -1.9810203837
 C         -2.9242070581       -3.1388981345       -1.8876912469
 C         -3.5921242126       -2.0622280397       -1.3149676359
 C         -2.9005063409       -0.9680684463       -0.7852203764
 C         -5.5856127957       -0.9684980327        0.7043645515
 C         -6.9356154190       -1.0336783606        0.9495044105
 H         -7.9192085792        1.7317001227       -0.7584035002
 H         -5.4980484093        1.8455902279       -1.1792116450
 H         -4.5798122950        2.3997665987        0.8809972124
 H         -3.3437374254        4.3837396283        1.5813642179
 H         -0.8704029924        4.4222656394        1.4015714162
 H          0.3152983343        2.4745508513        0.5309861443
 H          0.9658266677        1.9290612120       -1.6167796009
 H          3.4166517174        1.9642756974       -1.4646202598
 H          0.7772740849       -1.6330190776        0.7531266873
 H          2.5849825565       -3.3224871553        1.9215915321
 H          4.6310362639       -4.3876146490        2.8156474448
 H          6.8378937304       -3.4248971943        2.3713673034
 H          7.0836588677       -1.3620172406        1.0415061949
 H          5.3878858431        0.8373308454       -2.4506366810
 H          7.1930105066        2.4086286335       -3.0463439158
 H          8.7007961019        3.2800566704       -1.2993600012
 H          8.3929995035        2.5860054906        1.0485359965
 H          6.5639508495        1.0452051576        1.6503682551
 H          0.2333057913       -1.9951305519       -1.6401094647
 H         -1.0173765974       -3.9414992772       -2.4375866112
 H         -3.4895120231       -3.9746100704       -2.2715909415
 H         -4.6710753823       -2.0667298188       -1.2990093124
 H         -4.9265048739       -1.7130482561        1.1263617669
 H         -7.3478872064       -1.8338769218        1.5469026002
  65
  -101.138917849600       6.444929779388728E-002 !
 N        -10.3716615250        0.4080214306        0.3824676802
 C         -9.2297429023        0.3327691101        0.2697094194
 C         -7.8329708728        0.2466145767        0.1372622965
 C         -7.0624406204        1.4113436944        0.0234495911
 C         -5.6952532451        1.3236640641       -0.0778553241
 C         -5.0438998979        0.0788280444       -0.0926583683
 C         -3.5967426983        0.0011541184       -0.1749370227
 C         -2.8001679198        0.7264590614        0.7682011086
 C         -3.3705329195        1.4375971848        1.8278298373
 C         -2.5923001497        2.1870898309        2.7065867420
 C         -1.2233739121        2.2296507121        2.5457033045
 C         -0.6225445410        1.4823028762        1.5384429115
 C         -1.3780166060        0.6892424823        0.6669625037
 C         -0.7579175133       -0.1204993573       -0.3274823601
 C          0.7058664581       -0.1797256421       -0.3641718786
 C          1.4161079679        0.3628847687       -1.4464587920
 C          2.7924918760        0.4531505604       -1.4430326160
 C          3.4812290979       -0.0645989027       -0.3527990277
 C          2.7842482955       -0.6774419869        0.7168687536
 C          1.4013991296       -0.7075862609        0.7210022361
 C          3.7783524887       -1.1040499706        1.6627640746
 C          3.7185656749       -1.7911039989        2.8670802437
 C          4.8996015881       -2.0643982184        3.5291704994
 C          6.1261769307       -1.6680795176        3.0010188477
 C          6.2095598279       -0.9817092761        1.8041038629
 C          5.0253657686       -0.6922723827        1.1418167444
 N          4.8310600991       -0.0654856073       -0.0750703630
 C          5.8184346961        0.6296244708       -0.7920997664
 C          5.9851889993        0.4250888360       -2.1574572728
 C          6.9458986780        1.1426892571       -2.8475705616
 C          7.7482354035        2.0563013858       -2.1847425068
 C          7.5882105135        2.2542672456       -0.8230165777
 C          6.6255351206        1.5487484633       -0.1266601426
 C         -1.5450042175       -0.8581535693       -1.2536866963
 C         -0.9521969869       -1.6863074681       -2.2133560859
 C         -1.7187751904       -2.3801913168       -3.1436596397
 C         -3.0917831245       -2.2464254946       -3.1373899217
 C         -3.7087842028       -1.4517353965       -2.1739964162
 C         -2.9693806371       -0.7850436780       -1.1934969713
 C         -5.8316978379       -1.0800085677       -0.0018520209
 C         -7.1981648827       -1.0021391208        0.1240086052
 H         -7.5537123193        2.3735092425        0.0150492981
 H         -5.1060830035        2.2227433935       -0.1852565599
 H         -4.4378647138        1.4028356390        1.9810512582
 H         -3.0693010122        2.7337850105        3.5058368076
 H         -0.6109381071        2.8269440788        3.2043191047
 H          0.4498303080        1.5186400983        1.4237594985
 H          0.8581090622        0.7701520616       -2.2769206446
 H          3.3126917604        0.9367461858       -2.2558291502
 H          0.8613286812       -1.1397645227        1.5500067567
 H          2.7684680315       -2.1099325205        3.2682968143
 H          4.8770041566       -2.6009374287        4.4657022581
 H          7.0331517848       -1.9078465939        3.5355764047
 H          7.1652949314       -0.6923221660        1.3935750329
 H          5.3722319331       -0.3030178248       -2.6676014695
 H          7.0727364511        0.9818322573       -3.9077035850
 H          8.4984160580        2.6116113256       -2.7267437347
 H          8.2095687789        2.9667096581       -0.3011691037
 H          6.4809316142        1.7139236833        0.9310067927
 H          0.1224843684       -1.7878649510       -2.2264872969
 H         -1.2333436794       -3.0105027790       -3.8736232407
 H         -3.6963786069       -2.7562904082       -3.8722316500
 H         -4.7824926914       -1.3471862392       -2.1954595892
 H         -5.3453742834       -2.0443264354        0.0185069066
 H         -7.7928512627       -1.8992367760        0.2182310448
