  68
  -116.364266802000       0.247655565828664      !
 C        -10.3164674832        1.1547359022       -0.3059333455
 C         -9.7054614361        2.4045628157       -0.3732803883
 C         -8.3317358176        2.5344160908       -0.3308828011
 C         -7.5626302009        1.3812485331       -0.2199346352
 C         -8.1975727397        0.1229085114       -0.1528620538
 C         -9.5721371130       -0.0079582860       -0.1941224572
 O         -7.2892259086       -0.8891792763       -0.0490771672
 C         -6.0669982819       -0.3000366091       -0.0515044065
 C         -6.1562799136        1.1039767068       -0.1549883643
 C         -5.0060202818        1.8992869525       -0.1804117004
 C         -3.7650321620        1.3052857567       -0.1005273590
 C         -3.6838101135       -0.0838614282       -0.0101461381
 C         -4.8300120685       -0.9177000673        0.0257369286
 C         -4.3666974009       -2.2696081070        0.1143391759
 C         -5.0177520790       -3.4934048336        0.1671917889
 C         -4.2526366374       -4.6441191188        0.1970071454
 C         -2.8621444955       -4.5808687966        0.1455006314
 C         -2.1943389550       -3.3692374277        0.0967775079
 C         -2.9516782702       -2.2070707697        0.1144096025
 N         -2.5532910949       -0.8787089721        0.0627182721
 C         -1.2596701021       -0.4201399048        0.1272809773
 C         -0.2954474732       -1.0292450621        0.9147713975
 N          0.9454435666       -0.5869375265        1.0156414881
 C          1.2708677755        0.5414840983        0.3074738437
 N          2.5815747689        0.9610984346        0.3048717944
 C          3.0164543287        2.2765957024        0.2839113573
 C          2.2978974214        3.4530107394        0.4378384513
 C          2.9955071896        4.6476748777        0.3968066664
 C          4.3764526862        4.6775780055        0.2155623025
 C          5.1052379514        3.5088644151        0.0964688749
 C          4.4251798622        2.3006224159        0.1402203176
 C          4.8478543014        0.9325506377        0.0901381912
 C          6.0587839825        0.2731031811       -0.0403625259
 O          7.2924402489        0.8221835057       -0.1722165471
 C          8.1621934781       -0.2225367196       -0.2836416883
 C          9.5318774185       -0.1381894839       -0.4430447260
 C         10.2330858423       -1.3285618674       -0.5411042032
 C          9.5854703957       -2.5602390878       -0.4815037055
 C          8.2166610626       -2.6434862077       -0.3218240839
 C          7.4908635648       -1.4618545808       -0.2209084798
 C          6.1026713253       -1.1369375560       -0.0577084253
 C          4.9356924817       -1.8973939307        0.0655332342
 C          3.7196928652       -1.2617775388        0.1923465044
 C          3.6839093090        0.1318759519        0.2057742094
 C          0.2985310600        1.1736003961       -0.4508595727
 N         -0.9396680075        0.7260546796       -0.5597458373
 H        -11.3933192158        1.0898999429       -0.3416043593
 H        -10.3218877254        3.2867539065       -0.4601426884
 H         -7.8602082369        3.5036127488       -0.3840638474
 H        -10.0387929388       -0.9784872384       -0.1429020216
 H         -5.0971023870        2.9709141768       -0.2590170680
 H         -2.8618738818        1.8926320592       -0.1224936352
 H         -6.0957777298       -3.5326140541        0.1754555069
 H         -4.7356505319       -5.6085090281        0.2412351260
 H         -2.2906593980       -5.4966113503        0.1348231569
 H         -1.1188974872       -3.3425462163        0.0197346933
 H         -0.5613477721       -1.8470640168        1.5683330073
 H          1.2327366055        3.4436655368        0.6088170184
 H          2.4572389597        5.5759832392        0.5150528527
 H          4.8833807406        5.6302104148        0.1851092616
 H          6.1776732877        3.5229020545       -0.0191629807
 H         10.0271931106        0.8183001832       -0.4887448581
 H         11.3046759968       -1.3002667844       -0.6667667200
 H         10.1686079398       -3.4651570588       -0.5638573920
 H          7.7163674827       -3.5985730027       -0.2767317034
 H          4.9937001317       -2.9741687711        0.0529240392
 H          2.8035519163       -1.8210524779        0.2895214539
 H          0.5584090393        2.0129832345       -1.0794446089
  68
  -116.364204669600       0.231896406487590      !
 C        -10.3614084239        1.2416960780       -0.0103652331
 C         -9.7466619096        2.4907300484       -0.0543035100
 C         -8.3717369675        2.6128410277       -0.0758943568
 C         -7.6058653030        1.4523886836       -0.0520751289
 C         -8.2443180310        0.1949046895       -0.0058927209
 C         -9.6200863051        0.0720299512        0.0147069211
 O         -7.3377135936       -0.8242787991        0.0128385031
 C         -6.1137642017       -0.2410599115       -0.0193956376
 C         -6.2002921282        1.1664140538       -0.0627587445
 C         -5.0484792700        1.9552311449       -0.1384240830
 C         -3.8085997716        1.3530243140       -0.1403962320
 C         -3.7261670378       -0.0383491363       -0.0582354911
 C         -4.8784580992       -0.8669380280       -0.0260674795
 C         -4.4223729512       -2.2250890330       -0.0413084018
 C         -5.0720026841       -3.4507675937       -0.0362637371
 C         -4.3035970241       -4.6000544106       -0.0633257034
 C         -2.9121811901       -4.5366069372       -0.0982073899
 C         -2.2452214063       -3.3241929834       -0.0996582761
 C         -3.0098614304       -2.1695168407       -0.0762767051
 N         -2.6023033870       -0.8437408092       -0.0675927491
 C         -1.2958930316       -0.4215473249        0.0013993845
 C         -0.9027517144        0.6399199314        0.8013317748
 N          0.3540279356        1.0242865533        0.9295649814
 C          1.3025040598        0.3287608453        0.2221910644
 N          2.6013992062        0.7775322707        0.2548640678
 C          2.9774031604        2.1135935347        0.2510867308
 C          2.1892772959        3.2499597475        0.3298363955
 C          2.8264387558        4.4781318731        0.2998162774
 C          4.2113626144        4.5752037903        0.1831666476
 C          5.0031396795        3.4446014545        0.0999498407
 C          4.3835005046        2.2037681739        0.1318681300
 C          4.8699796140        0.8575736258        0.0753846376
 C          6.1165624656        0.2636907223       -0.0268173198
 O          7.3194368980        0.8786502644       -0.1454826937
 C          8.2494475616       -0.1169431972       -0.2121710352
 C          9.6154090452        0.0419029615       -0.3427783707
 C         10.3853417496       -1.1084015234       -0.3933838930
 C          9.8074497703       -2.3733262319       -0.3159995338
 C          8.4423093030       -2.5313566124       -0.1848686676
 C          7.6480419828       -1.3909755987       -0.1317022225
 C          6.2409722789       -1.1413632254       -0.0076676208
 C          5.1172114121       -1.9593283044        0.1444371717
 C          3.8658870650       -1.3889703616        0.2395492378
 C          3.7424018132        0.0003284090        0.1737103013
 C          0.9098930826       -0.7388893323       -0.5707106033
 N         -0.3454457199       -1.1288377374       -0.6922022648
 H        -11.4391001954        1.1831208126        0.0045558539
 H        -10.3609856390        3.3784408431       -0.0720137706
 H         -7.8970050838        3.5812195535       -0.1107850252
 H        -10.0901584904       -0.8976247125        0.0486548181
 H         -5.1360380612        3.0277734543       -0.2077257687
 H         -2.9157743132        1.9504241567       -0.2341605602
 H         -6.1498329707       -3.4939917172       -0.0145224042
 H         -4.7869832937       -5.5656483959       -0.0579430119
 H         -2.3420289236       -5.4528330449       -0.1198901124
 H         -1.1689047508       -3.2712362926       -0.1288489015
 H         -1.6194414296        1.1326455866        1.4425665105
 H          1.1180788052        3.1712222896        0.4217062267
 H          2.2370993285        5.3802136517        0.3646335717
 H          4.6708905708        5.5517917516        0.1586205619
 H          6.0764027922        3.5130324585        0.0142822659
 H         10.0564982244        1.0238746818       -0.4028941218
 H         11.4563623112       -1.0217336641       -0.4955173883
 H         10.4430880109       -3.2449354830       -0.3601468663
 H          7.9963647790       -3.5121441810       -0.1258534802
 H          5.2357610429       -3.0299400427        0.1975273822
 H          2.9978316511       -2.0101959678        0.3920406676
 H          1.6247621980       -1.2303365633       -1.2146761582
  68
  -116.364116041900       0.211136611795133      !
 C        -10.3437137118        1.2624139259        0.2370645516
 C         -9.7202275621        2.4997037783        0.3796654178
 C         -8.3443157932        2.6128289056        0.3876872505
 C         -7.5861095524        1.4552019635        0.2498758924
 C         -8.2335606388        0.2094617339        0.1087254245
 C         -9.6102642158        0.0955505640        0.0993964815
 O         -7.3344923389       -0.8094465522       -0.0098458029
 C         -6.1064036216       -0.2374472684        0.0497949449
 C         -6.1822541871        1.1620599786        0.2107267194
 C         -5.0235954107        1.9360707002        0.3254998891
 C         -3.7880642630        1.3293021180        0.2525283570
 C         -3.7176394844       -0.0517405679        0.0607502278
 C         -4.8756585155       -0.8687338878       -0.0155478622
 C         -4.4285926712       -2.2264516621       -0.1164882598
 C         -5.0861888958       -3.4443846344       -0.2083168100
 C         -4.3245557577       -4.5959327123       -0.2880099945
 C         -2.9323678962       -4.5425329914       -0.2727671381
 C         -2.2575037011       -3.3376303649       -0.1842810466
 C         -3.0154034294       -2.1811757647       -0.1016009795
 N         -2.5996675824       -0.8613511452       -0.0132668410
 C         -1.2922386935       -0.4394195908       -0.0761939384
 C         -0.9093408013        0.6618575345       -0.8251942422
 N          0.3468022862        1.0485712220       -0.9544065000
 C          1.3033037284        0.3208921964       -0.2911275421
 N          2.6002349036        0.7751391018       -0.3111209927
 C          2.9705111050        2.1127168944       -0.2637970209
 C          2.1804886973        3.2483112107       -0.3335589586
 C          2.8122891705        4.4775816479       -0.2622555828
 C          4.1937328876        4.5763665998       -0.1119492440
 C          4.9874635533        3.4466115184       -0.0369688242
 C          4.3733887462        2.2048262683       -0.1122134651
 C          4.8646478113        0.8596790939       -0.0817071431
 C          6.1106878103        0.2683231852        0.0400674338
 O          7.3053994786        0.8842193803        0.2204597103
 C          8.2373220084       -0.1092586069        0.2913267681
 C          9.5959920327        0.0505560996        0.4827175152
 C         10.3690648160       -1.0978218047        0.5285404149
 C          9.8013920184       -2.3617390846        0.3866479776
 C          8.4433941081       -2.5207964057        0.1956855507
 C          7.6459762627       -1.3824475094        0.1476255938
 C          6.2430021122       -1.1348299871       -0.0189033469
 C          5.1287961822       -1.9523073960       -0.2329194141
 C          3.8773895098       -1.3848725096       -0.3433215658
 C          3.7438925762        0.0009000290       -0.2328652231
 C          0.9187324317       -0.7825105275        0.4560448113
 N         -0.3347333073       -1.1813577822        0.5688829962
 H        -11.4218547527        1.2108037040        0.2345808936
 H        -10.3285337309        3.3856336366        0.4852825189
 H         -7.8633151954        3.5726386742        0.4972716523
 H        -10.0864215157       -0.8655849070       -0.0098827641
 H         -5.1020699990        3.0002091607        0.4813643382
 H         -2.8883857666        1.9120724493        0.3710365699
 H         -6.1644861053       -3.4800964630       -0.2144302492
 H         -4.8140903581       -5.5554627202       -0.3631182744
 H         -2.3679425083       -5.4606646025       -0.3356563270
 H         -1.1804672517       -3.2926523768       -0.1693274760
 H         -1.6362207740        1.1907924751       -1.4248171145
 H          1.1120243628        3.1677635104       -0.4513786107
 H          2.2211222856        5.3790797943       -0.3202217240
 H          4.6490825111        5.5536409511       -0.0549314218
 H          6.0583342121        3.5163746699        0.0736449735
 H         10.0292916952        1.0316404478        0.5926097812
 H         11.4344797758       -1.0104016512        0.6780292016
 H         10.4391963757       -3.2318968830        0.4284793687
 H          8.0052170542       -3.5009789214        0.0871285638
 H          5.2547873931       -3.0198417303       -0.3191190298
 H          3.0177757546       -2.0048388927       -0.5415271785
 H          1.6390229555       -1.3003601578        1.0727072109
  68
  -116.363964834500       0.179917512605653      !
 C        -10.3624839427        1.2301430109        0.0510945637
 C         -9.7554911911        2.4731533108       -0.1118566012
 C         -8.3834883296        2.5943358913       -0.2051353057
 C         -7.6125875887        1.4392326505       -0.1314219763
 C         -8.2432094435        0.1877995729        0.0331616864
 C         -9.6161039758        0.0657434381        0.1259080700
 O         -7.3325809148       -0.8263984812        0.0862656419
 C         -6.1133412359       -0.2456806222       -0.0378639640
 C         -6.2073091400        1.1550082621       -0.1792836503
 C         -5.0630412924        1.9400918435       -0.3503726566
 C         -3.8209747205        1.3427915310       -0.3484039648
 C         -3.7311097238       -0.0391343712       -0.1718381752
 C         -4.8762012115       -0.8679484089       -0.0438348438
 C         -4.4103775654       -2.2214761988        0.0301230502
 C         -5.0473018336       -3.4471154730        0.1586874518
 C         -4.2686348850       -4.5891728376        0.2045943989
 C         -2.8798455248       -4.5203351023        0.1174213794
 C         -2.2250794384       -3.3078634099       -0.0090443458
 C         -3.0002043162       -2.1610193538       -0.0539456108
 N         -2.6030916309       -0.8364927694       -0.1567736538
 C         -1.2994730564       -0.3993636398       -0.1035190271
 C         -0.9221613797        0.6755580928        0.6856354719
 N          0.3335451861        1.0526762056        0.8407760143
 C          1.2953561355        0.3467163746        0.1603300866
 N          2.5960423128        0.7811315036        0.2393327349
 C          2.9818121779        2.1130428642        0.3172061433
 C          2.2020137927        3.2497004643        0.4539152004
 C          2.8491909685        4.4714873923        0.5145309238
 C          4.2365764751        4.5634865598        0.4267434864
 C          5.0202621062        3.4333590446        0.2837671275
 C          4.3904527083        2.1984151778        0.2272032192
 C          4.8685919893        0.8542073043        0.1021007375
 C          6.1130015448        0.2589627102       -0.0176369441
 O          7.3205483449        0.8718736799       -0.0919416877
 C          8.2454061251       -0.1245116737       -0.2044553681
 C          9.6133071437        0.0320759319       -0.3154090975
 C         10.3765765012       -1.1188955566       -0.4221809441
 C          9.7904693148       -2.3823977793       -0.4181627995
 C          8.4234114275       -2.5383094746       -0.3065201375
 C          7.6358445909       -1.3971931327       -0.1975935787
 C          6.2294048426       -1.1457513750       -0.0721693964
 C          5.0998000818       -1.9636194318        0.0293160737
 C          3.8506710556       -1.3911730970        0.1400775926
 C          3.7341191631        0.0005200077        0.1385781839
 C          0.9118454573       -0.7114446654       -0.6498205898
 N         -0.3418831122       -1.1035375929       -0.7865796330
 H        -11.4380089168        1.1722413579        0.1213881165
 H        -10.3736343624        3.3567556370       -0.1666196299
 H         -7.9148323065        3.5580678353       -0.3319689235
 H        -10.0798018822       -0.8990491311        0.2542081359
 H         -5.1587759074        3.0048037526       -0.4918573930
 H         -2.9317458333        1.9321342344       -0.5075442329
 H         -6.1233136997       -3.4964481495        0.2203854698
 H         -4.7423551319       -5.5539194093        0.3084203065
 H         -2.3021143494       -5.4316160574        0.1533348204
 H         -1.1507963978       -3.2489480316       -0.0784730218
 H         -1.6538223916        1.1836452578        1.2973454264
 H          1.1288680458        3.1745884435        0.5222553937
 H          2.2655465665        5.3725509753        0.6279950509
 H          4.7042829023        5.5356442505        0.4723884184
 H          6.0954216237        3.4974597291        0.2210855011
 H         10.0611506963        1.0127432513       -0.3188464974
 H         11.4488464025       -1.0338440841       -0.5119495613
 H         10.4210892830       -3.2544845691       -0.5053106492
 H          7.9707921110       -3.5179036410       -0.3042430430
 H          5.2120320650       -3.0360877648        0.0312521693
 H          2.9795620497       -2.0155834664        0.2575749170
 H          1.6325985896       -1.1951150329       -1.2928251207
  68
  -116.363653325500       0.129393903282961      !
 C        -10.3658235095        1.1990980135       -0.0482922811
 C         -9.7676562947        2.4441490455        0.1305508667
 C         -8.3958318985        2.5756849899        0.2119900713
 C         -7.6158718906        1.4286603701        0.1120491088
 C         -8.2380526030        0.1743047785       -0.0635067256
 C         -9.6104719866        0.0423268543       -0.1477962269
 O         -7.3199571862       -0.8317776352       -0.1378980619
 C         -6.1044865940       -0.2426155935       -0.0152054583
 C         -6.2080869430        1.1552463263        0.1395255033
 C         -5.0628121834        1.9512439796        0.2337085596
 C         -3.8165438388        1.3624043531        0.2046816979
 C         -3.7174553468       -0.0265429553        0.0992103251
 C         -4.8627175699       -0.8543225522       -0.0427227968
 C         -4.3970796908       -2.1962059756       -0.2231443248
 C         -5.0401250255       -3.4064003118       -0.4388308537
 C         -4.2663570743       -4.5421071626       -0.5905044219
 C         -2.8760301246       -4.4790475808       -0.5273779348
 C         -2.2166743947       -3.2821243680       -0.3091219985
 C         -2.9853441420       -2.1377878008       -0.1695018261
 N         -2.5869003535       -0.8240417194        0.0393829410
 C         -1.2816150980       -0.4145527173        0.1561101341
 C         -0.8810912913        0.6169210185        0.9913024273
 N          0.3734761224        1.0182991369        1.1003628262
 C          1.3137088705        0.3459596967        0.3662272073
 N          2.6093371345        0.8128836326        0.3463249559
 C          2.9746743698        2.1357910632        0.1516208994
 C          2.1771513428        3.2669530125        0.1050352112
 C          2.7987187228        4.4805653941       -0.1314817210
 C          4.1763398420        4.5649978116       -0.3216022113
 C          4.9772828529        3.4383744286       -0.2745770097
 C          4.3738488869        2.2116375296       -0.0389783558
 C          4.8671747823        0.8693314776        0.0628240034
 C          6.1083133382        0.2599097340       -0.0162533336
 O          7.3048795995        0.8446628691       -0.2722114056
 C          8.2295010732       -0.1580975715       -0.2526450057
 C          9.5866969653       -0.0299663745       -0.4761564336
 C         10.3513516508       -1.1830135109       -0.4113029279
 C          9.7776220768       -2.4207888108       -0.1307378873
 C          8.4209867074       -2.5484802294        0.0902819015
 C          7.6318946931       -1.4051778286        0.0271930871
 C          6.2323007026       -1.1317561982        0.1817351399
 C          5.1166489037       -1.9212379008        0.4770649547
 C          3.8696604973       -1.3385082217        0.5429667619
 C          3.7484475297        0.0332840165        0.3146632576
 C          0.9277673435       -0.7329847878       -0.4137869292
 N         -0.3276754390       -1.1164536655       -0.5435767226
 H        -11.4413351994        1.1333688865       -0.1113988411
 H        -10.3925968916        3.3214492076        0.2055741986
 H         -7.9340886674        3.5413395136        0.3491541886
 H        -10.0674443662       -0.9245843204       -0.2844745955
 H         -5.1585161427        3.0225050961        0.3118836824
 H         -2.9324246863        1.9783019507        0.2299849239
 H         -6.1170212714       -3.4465837007       -0.4903833809
 H         -4.7438997832       -5.4956740833       -0.7594834555
 H         -2.2999409453       -5.3841559116       -0.6473200796
 H         -1.1411551529       -3.2325344884       -0.2609701431
 H         -1.5846185308        1.0752012066        1.6707440829
 H          1.1116285327        3.1959533005        0.2544051440
 H          2.2032287221        5.3800140772       -0.1748225575
 H          4.6234584580        5.5296202847       -0.5100306320
 H          6.0447538680        3.5001226810       -0.4185647924
 H         10.0251116611        0.9309358607       -0.6924172394
 H         11.4153236233       -1.1201291532       -0.5816464091
 H         10.4094368525       -3.2952593325       -0.0871102327
 H          7.9775771116       -3.5083000363        0.3061015048
 H          5.2386900146       -2.9775414699        0.6562398051
 H          3.0011867116       -1.9287059046        0.7900828120
 H          1.6499647284       -1.2335152543       -1.0428504266
