  68
       -116.75238451
 C        -10.3681764023        1.1801525105       -0.0941236271
 C         -9.7603628073        2.4294231761       -0.1931950459
 C         -8.3860920326        2.5583554324       -0.2166932030
 C         -7.6137567998        1.4046226359       -0.1381099510
 C         -8.2452349482        0.1468760917       -0.0364749431
 C         -9.6203418591        0.0171309556       -0.0139344530
 O         -7.3329521618       -0.8651557390        0.0309723657
 C         -6.1122249199       -0.2769546346       -0.0245243584
 C         -6.2065673355        1.1265705576       -0.1320741034
 C         -5.0590095554        1.9177634839       -0.2404964339
 C         -3.8157512943        1.3232516125       -0.2118144147
 C         -3.7257071454       -0.0624499237       -0.0662502543
 C         -4.8733927919       -0.8953529478        0.0005272251
 C         -4.4096092519       -2.2501393007        0.0482646994
 C         -5.0523245623       -3.4780483463        0.1073288860
 C         -4.2773711004       -4.6229257013        0.1345826915
 C         -2.8862402800       -4.5531043840        0.1005186173
 C         -2.2261308239       -3.3381826792        0.0456933430
 C         -2.9973384815       -2.1880672427        0.0145278106
 N         -2.5972945390       -0.8609381410       -0.0360117500
 C         -1.2934924181       -0.4285160560        0.0171525180
 C         -0.9086639746        0.6704675771        0.7690213255
 N          0.3455503930        1.0675092474        0.8829545343
 C          1.2999796353        0.3460292241        0.2104426575
 N          2.5962218644        0.8033069750        0.2260970809
 C          2.9646903891        2.1399620212        0.1625582992
 C          2.1699404033        3.2741682278        0.1874741292
 C          2.8002459182        4.5033609554        0.1033141640
 C          4.1849318609        4.6030169147       -0.0139791310
 C          4.9833133820        3.4743865232       -0.0436099523
 C          4.3705957464        2.2327333021        0.0430681431
 C          4.8648245572        0.8881913511        0.0491422395
 C          6.1150292053        0.2974770510       -0.0226623740
 O          7.3147530070        0.9133348820       -0.1659995337
 C          8.2505557062       -0.0788797169       -0.1848941845
 C          9.6159714942        0.0817417197       -0.3189897958
 C         10.3925258640       -1.0652136765       -0.3152048075
 C          9.8215589103       -2.3286253959       -0.1819022866
 C          8.4569580036       -2.4884033765       -0.0473186213
 C          7.6561180880       -1.3513849827       -0.0481582099
 C          6.2473091818       -1.1045128512        0.0606888728
 C          5.1277460276       -1.9211865246        0.2468707172
 C          3.8729532435       -1.3543221193        0.3126500805
 C          3.7418218616        0.0298120738        0.1833769468
 C          0.9156960567       -0.7588081716       -0.5341201646
 N         -0.3370655117       -1.1611109912       -0.6410612022
 H        -11.4455591804        1.1161005736       -0.0793942757
 H        -10.3796318764        3.3118527988       -0.2528736360
 H         -7.9167328284        3.5268690969       -0.2943328098
 H        -10.0850315289       -0.9526734844        0.0628336713
 H         -5.1524178589        2.9855237677       -0.3587298309
 H         -2.9260432317        1.9209116825       -0.3302948964
 H         -6.1299522151       -3.5264560285        0.1281729596
 H         -4.7553148112       -5.5900490549        0.1825955191
 H         -2.3108668548       -5.4660649017        0.1220254216
 H         -1.1500501247       -3.2804000165        0.0169611404
 H         -1.6299757037        1.1876910177        1.3852956211
 H          1.0989417969        3.1935106939        0.2800063240
 H          2.2056406658        5.4040421491        0.1254897989
 H          4.6390111767        5.5801139374       -0.0816982742
 H          6.0564167698        3.5450422829       -0.1294722108
 H         10.0516849895        1.0624935476       -0.4225350956
 H         11.4633315074       -0.9771016668       -0.4183511099
 H         10.4622302682       -3.1976593819       -0.1846931200
 H          8.0163857653       -3.4680503336        0.0550606142
 H          5.2521805818       -2.9875764462        0.3489033411
 H          3.0079791672       -1.9729704079        0.4909454364
 H          1.6351879140       -1.2748891711       -1.1531853778
  68
       -116.75230767
 C        -10.3218901015        1.0801068809       -0.3853120880
 C         -9.7177536110        2.3290839570       -0.5078138905
 C         -8.3449110505        2.4686522657       -0.4677452655
 C         -7.5696352490        1.3261759941       -0.3024462588
 C         -8.1976589197        0.0685442018       -0.1798945836
 C         -9.5713377911       -0.0719897083       -0.2187833264
 O         -7.2839200188       -0.9325229332       -0.0277999735
 C         -6.0650342153       -0.3370592315       -0.0537946503
 C         -6.1619367210        1.0602600687       -0.2212527298
 C         -5.0161142104        1.8602142870       -0.2797845705
 C         -3.7720306024        1.2776268857       -0.1697012471
 C         -3.6832334722       -0.1054840181       -0.0160295670
 C         -4.8248112668       -0.9434272709        0.0547138848
 C         -4.3541341754       -2.2872149768        0.2059219017
 C         -4.9984234112       -3.5110791152        0.3126550842
 C         -4.2269166907       -4.6548158699        0.3967834187
 C         -2.8366603072       -4.5859525619        0.3461183041
 C         -2.1755638559       -3.3739566582        0.2441076752
 C         -2.9394965739       -2.2165778232        0.2068772482
 N         -2.5484631361       -0.8896631320        0.0958833159
 C         -1.2576425500       -0.4211788013        0.1429349036
 C         -0.2922819616       -0.9882841843        0.9598473540
 N          0.9457963888       -0.5346979948        1.0437691676
 C          1.2668968145        0.5622233527        0.2858801483
 N          2.5752172849        0.9888392313        0.2676531521
 C          3.0027260050        2.3045103813        0.1880393826
 C          2.2770999822        3.4825420816        0.2864167526
 C          2.9680735363        4.6781101335        0.1929395881
 C          4.3493471843        4.7077085414        0.0141625630
 C          5.0850570698        3.5390126789       -0.0497405593
 C          4.4117035830        2.3301059036        0.0471171330
 C          4.8422339200        0.9636326514        0.0604126623
 C          6.0572379833        0.3059305947       -0.0367738004
 O          7.2881529047        0.8555564349       -0.1902090035
 C          8.1641060822       -0.1881145694       -0.2517188120
 C          9.5337479720       -0.1032013328       -0.4111826549
 C         10.2419428943       -1.2927361418       -0.4531614146
 C          9.6011177538       -2.5241459099       -0.3393199300
 C          8.2323434456       -2.6079425682       -0.1796275123
 C          7.4996009963       -1.4271513376       -0.1344629086
 C          6.1091308912       -1.1031643684        0.0101343079
 C          4.9461096837       -1.8639511112        0.1647539338
 C          3.7261809293       -1.2302519569        0.2593271134
 C          3.6824954531        0.1623416040        0.2092714280
 C          0.2932080598        1.1535943287       -0.5029733554
 N         -0.9421256112        0.6944265870       -0.5946577271
 H        -11.3982510815        1.0075058396       -0.4208354117
 H        -10.3388938768        3.2028440093       -0.6363272802
 H         -7.8787077558        3.4371332695       -0.5637019133
 H        -10.0326562359       -1.0418626311       -0.1247118315
 H         -5.1130136621        2.9266171934       -0.4072796644
 H         -2.8721410331        1.8685673986       -0.2159737956
 H         -6.0762300647       -3.5560899085        0.3198524431
 H         -4.7046072741       -5.6189684224        0.4835474426
 H         -2.2599886634       -5.4979220650        0.3786004565
 H         -1.1000716038       -3.3445922142        0.1687650451
 H         -0.5554541988       -1.7770680697        1.6492194923
 H          1.2115183821        3.4748348904        0.4548359307
 H          2.4242358078        5.6077137452        0.2674306089
 H          4.8509779144        5.6608800748       -0.0582431391
 H          6.1577263536        3.5539653088       -0.1630646883
 H         10.0237889446        0.8530633154       -0.4990256284
 H         11.3137156008       -1.2640018970       -0.5771563652
 H         10.1895880139       -3.4284932664       -0.3789011248
 H          7.7373185288       -3.5628621593       -0.0924685716
 H          5.0102284314       -2.9398334729        0.2012760683
 H          2.8129328503       -1.7898066208        0.3794195397
 H          0.5501641228        1.9650201013       -1.1683913131
  68
       -116.75225309
 C        -10.3508176822        1.2041221150        0.2301415125
 C         -9.7344332014        2.4452662482        0.3700971378
 C         -8.3591901628        2.5662321298        0.3783844993
 C         -7.5943595367        1.4126176360        0.2435641595
 C         -8.2346610962        0.1628903853        0.1050694110
 C         -9.6106909407        0.0411309288        0.0954764709
 O         -7.3297670609       -0.8511622363       -0.0107800807
 C         -6.1049742113       -0.2720512346        0.0479993395
 C         -6.1888446923        1.1273731068        0.2056385918
 C         -5.0346511613        1.9082253309        0.3190525896
 C         -3.7956611707        1.3083241601        0.2479712124
 C         -3.7173090965       -0.0727386713        0.0594405550
 C         -4.8706338194       -0.8964794266       -0.0153980123
 C         -4.4158155623       -2.2518644123       -0.1130006832
 C         -5.0664398247       -3.4737277393       -0.2022423858
 C         -4.2982400468       -4.6211086256       -0.2789575687
 C         -2.9063844758       -4.5597576483       -0.2633036951
 C         -2.2384171073       -3.3508340111       -0.1773674193
 C         -3.0029126214       -2.1985185077       -0.0976753653
 N         -2.5947227377       -0.8761489503       -0.0122586618
 C         -1.2896889982       -0.4469371610       -0.0756663465
 C         -0.9127607432        0.6547519457       -0.8270848455
 N          0.3412146418        1.0483004995       -0.9567151256
 C          1.3015739302        0.3276193488       -0.2913735101
 N          2.5959093078        0.7891861856       -0.3119270481
 C          2.9585556656        2.1289545496       -0.2675792754
 C          2.1621172607        3.2598724222       -0.3402925230
 C          2.7868898977        4.4928785030       -0.2716122936
 C          4.1676897072        4.5998673517       -0.1210052617
 C          4.9678010333        3.4748218459       -0.0430857340
 C          4.3608264978        2.2293928065       -0.1156712208
 C          4.8597134780        0.8871356610       -0.0818398463
 C          6.1090470210        0.3031602412        0.0417924504
 O          7.3001657295        0.9262587834        0.2212078786
 C          8.2376934884       -0.0617359458        0.2947494921
 C          9.5953566322        0.1062476963        0.4862897685
 C         10.3749278972       -1.0376056677        0.5350873290
 C          9.8145069742       -2.3050576895        0.3959236821
 C          8.4575114568       -2.4722791409        0.2048102175
 C          7.6536534368       -1.3385982459        0.1537896230
 C          6.2493604764       -1.0993513812       -0.0138558714
 C          5.1399056988       -1.9236478480       -0.2263940483
 C          3.8853370505       -1.3635970277       -0.3386002452
 C          3.7439193146        0.0216474860       -0.2314264379
 C          0.9229851107       -0.7762090900        0.4582213556
 N         -0.3282374662       -1.1819138961        0.5715069273
 H        -11.4286467853        1.1463761683        0.2273634398
 H        -10.3478086047        3.3279662161        0.4734144261
 H         -7.8836981267        3.5290142627        0.4859158734
 H        -10.0813323416       -0.9229486289       -0.0117447938
 H         -5.1192368169        2.9722604934        0.4724054198
 H         -2.8993578738        1.8964755975        0.3654664854
 H         -6.1445140422       -3.5155849355       -0.2086873561
 H         -4.7822812569       -5.5835792292       -0.3520168523
 H         -2.3367230559       -5.4748087684       -0.3238349939
 H         -1.1616598314       -3.2996974089       -0.1621044309
 H         -1.6423976340        1.1781467902       -1.4282188565
 H          1.0941751319        3.1729759261       -0.4583350787
 H          2.1906300802        5.3908629050       -0.3319074945
 H          4.6174528064        5.5798454318       -0.0660909061
 H          6.0382136320        3.5509308964        0.0677770569
 H         10.0230274254        1.0900334699        0.5940610551
 H         11.4397690241       -0.9437804238        0.6847817350
 H         10.4572317370       -3.1714747100        0.4400290501
 H          8.0249576925       -3.4551877244        0.0983702274
 H          5.2719987906       -2.9906463482       -0.3100560432
 H          3.0293410425       -1.9889016179       -0.5356905620
 H          1.6459628518       -1.2885166158        1.0763664665
  68
       -116.75216515
 C        -10.3693163659        1.1718063526       -0.0329229510
 C         -9.7688072311        2.4096554293       -0.2501470997
 C         -8.3972307544        2.5343643252       -0.3450346463
 C         -7.6200986971        1.3881991344       -0.2171431886
 C         -8.2441941927        0.1418742794        0.0020271143
 C         -9.6166558335        0.0162636060        0.0964198668
 O         -7.3280643352       -0.8636609200        0.1033537515
 C         -6.1117285778       -0.2821595363       -0.0435143918
 C         -6.2131134816        1.1101604965       -0.2482700333
 C         -5.0727515016        1.8932677414       -0.4514797345
 C         -3.8273712984        1.3037904739       -0.4191438628
 C         -3.7302997325       -0.0682236876       -0.1801362341
 C         -4.8711111952       -0.8969649031       -0.0179965373
 C         -4.3979397262       -2.2430861181        0.1182581975
 C         -5.0283738720       -3.4653051818        0.3002645365
 C         -4.2434653864       -4.5996481435        0.3998105213
 C         -2.8548279622       -4.5268582563        0.3134311682
 C         -2.2064849227       -3.3175962342        0.1341646702
 C         -2.9878812295       -2.1784058643        0.0354170038
 N         -2.5978847672       -0.8576145222       -0.1260009448
 C         -1.2968999963       -0.4110661622       -0.0889535827
 C         -0.9279827033        0.7005119804        0.6519105881
 N          0.3251213691        1.0914340826        0.7933168534
 C          1.2929075073        0.3610131429        0.1480715609
 N          2.5908978851        0.8059952767        0.2109550588
 C          2.9689682431        2.1422521245        0.2296892548
 C          2.1824106741        3.2794341709        0.3128130888
 C          2.8225514917        4.5063995366        0.3199953740
 C          4.2096572409        4.6022911207        0.2319529438
 C          5.0000842159        3.4713718879        0.1422841403
 C          4.3773723417        2.2315455235        0.1397910553
 C          4.8634042542        0.8858234159        0.0768021740
 C          6.1114810404        0.2929216986       -0.0125301855
 O          7.3157943982        0.9087640133       -0.1111096235
 C          8.2465503827       -0.0863681636       -0.1759961589
 C          9.6138798784        0.0728881092       -0.2901499796
 C         10.3838990832       -1.0773369261       -0.3427665083
 C          9.8048666867       -2.3427082135       -0.2833305350
 C          8.4383744535       -2.5012533600       -0.1685166809
 C          7.6441069793       -1.3609152563       -0.1133694995
 C          6.2359113429       -1.1121323096       -0.0032829714
 C          5.1106045641       -1.9310466468        0.1319144276
 C          3.8579629934       -1.3613516441        0.2132958959
 C          3.7336251238        0.0281658164        0.1486614577
 C          0.9177604810       -0.7348045281       -0.6145408480
 N         -0.3333369334       -1.1398452311       -0.7369030725
 H        -11.4447063183        1.1109743814        0.0369603540
 H        -10.3917213806        3.2863309085       -0.3464336868
 H         -7.9336000932        3.4940611487       -0.5139521150
 H        -10.0753269389       -0.9443981720        0.2668637647
 H         -5.1740215723        2.9499454384       -0.6411402571
 H         -2.9409829255        1.8904373675       -0.6022818861
 H         -6.1042728995       -3.5179676696        0.3611729864
 H         -4.7120854574       -5.5614256805        0.5457757139
 H         -2.2721134511       -5.4322657545        0.3920258638
 H         -1.1323451499       -3.2557196783        0.0650961923
 H         -1.6643093244        1.2314822020        1.2380532353
 H          1.1095021315        3.2013351369        0.3815283846
 H          2.2335329057        5.4083063633        0.3910703906
 H          4.6717736549        5.5781818662        0.2349546684
 H          6.0750511692        3.5387378363        0.0797241671
 H         10.0562334312        1.0549512538       -0.3366189906
 H         11.4559404337       -0.9902806077       -0.4333393473
 H         10.4406186774       -3.2142116948       -0.3292951895
 H          7.9912427053       -3.4823241773       -0.1232683346
 H          5.2288337926       -3.0016747417        0.1825644406
 H          2.9900154407       -1.9848050544        0.3564661504
 H          1.6431366137       -1.2428577443       -1.2330780939
  68
       -116.75146483
 C        -10.3722629059        1.1358759956       -0.1281138309
 C         -9.7815802484        2.3913723600       -0.0066072974
 C         -8.4107303431        2.5344750494        0.0716766729
 C         -7.6240650343        1.3885264632        0.0275086060
 C         -8.2387166187        0.1237522733       -0.0903316182
 C         -9.6101517735       -0.0199292003       -0.1714433155
 O         -7.3147779772       -0.8794175637       -0.1152866439
 C         -6.1029635387       -0.2781629049       -0.0176508478
 C         -6.2148353232        1.1248049814        0.0709971277
 C         -5.0743090777        1.9309207837        0.1302776792
 C         -3.8246712001        1.3485442961        0.1317785451
 C         -3.7174864791       -0.0432311975        0.0919065476
 C         -4.8576998090       -0.8833360798       -0.0135779582
 C         -4.3840477914       -2.2295129013       -0.1296960688
 C         -5.0197107017       -3.4521802243       -0.2897447936
 C         -4.2391698244       -4.5892891998       -0.3861340112
 C         -2.8493851901       -4.5153399056       -0.3228832145
 C         -2.1973439002       -3.3057143588       -0.1596073671
 C         -2.9728047273       -2.1605221620       -0.0756520814
 N         -2.5823052122       -0.8361451980        0.0721817807
 C         -1.2796497504       -0.4141260006        0.1725043788
 C         -0.8870686551        0.6577243449        0.9592193682
 N          0.3649351211        1.0709899751        1.0521495740
 C          1.3108037678        0.3703284724        0.3525503942
 N          2.6038254299        0.8432452679        0.3136743622
 C          2.9621918030        2.1576264390        0.0578605338
 C          2.1584251667        3.2807467952       -0.0436304526
 C          2.7737390882        4.4854649069       -0.3354939984
 C          4.1513404574        4.5687950620       -0.5262428774
 C          4.9585003097        3.4502484988       -0.4245183363
 C          4.3613957780        2.2324817204       -0.1329142417
 C          4.8620212983        0.8992979735        0.0329618630
 C          6.1067725630        0.2939820643       -0.0145769723
 O          7.3006690144        0.8729388890       -0.2950084964
 C          8.2308763676       -0.1224619892       -0.2262510488
 C          9.5878912975        0.0028321670       -0.4524534054
 C         10.3588672325       -1.1414798385       -0.3317612118
 C          9.7914146178       -2.3679897688        0.0053455666
 C          8.4349640451       -2.4929584478        0.2290396526
 C          7.6396017065       -1.3584379052        0.1105125503
 C          6.2381007369       -1.0861123681        0.2488592390
 C          5.1261714533       -1.8672538180        0.5784215217
 C          3.8757543739       -1.2892525644        0.6140402156
 C          3.7473895333        0.0695825005        0.3212625654
 C          0.9329322388       -0.7462638769       -0.3767840620
 N         -0.3199952384       -1.1426190191       -0.4912641434
 H        -11.4472232982        1.0610714821       -0.1905044626
 H        -10.4116452474        3.2676197351        0.0256953197
 H         -7.9547881271        3.5081457118        0.1643675711
 H        -10.0613173776       -0.9948048548       -0.2635791278
 H         -5.1762490397        3.0041033351        0.1578173416
 H         -2.9441053910        1.9700247054        0.1301242517
 H         -6.0962289691       -3.5009328884       -0.3417975544
 H         -4.7108986064       -5.5524709987       -0.5112084025
 H         -2.2678998849       -5.4217550545       -0.3988593220
 H         -1.1222470092       -3.2477333892       -0.1113965906
 H         -1.5948906958        1.1433586445        1.6147798586
 H          1.0929438493        3.2107150264        0.1064905267
 H          2.1732996998        5.3784458083       -0.4223982739
 H          4.5934906056        5.5260577058       -0.7587688316
 H          6.0259682899        3.5113031740       -0.5688240333
 H         10.0214293120        0.9550214050       -0.7126259104
 H         11.4228967305       -1.0805483750       -0.5024547571
 H         10.4280365407       -3.2357981268        0.0914452617
 H          7.9964262436       -3.4441159172        0.4887092454
 H          5.2537105082       -2.9132564399        0.8073040119
 H          3.0099972653       -1.8721763935        0.8866402925
 H          1.6595343860       -1.2716275054       -0.9799946985
