  83
       -137.60770982
 F         -0.4352518736       -6.4134319962        0.7222348746
 C         -0.0765277225       -5.1509268629        1.0114185599
 F         -0.3606590641       -4.9687396452        2.3125344188
 F          1.2746931336       -5.1274770410        0.9263842167
 C         -0.7133078764       -4.1317446677        0.1169986785
 C         -1.0386326673       -4.4744258616       -1.1947699291
 C         -1.5943966244       -3.5043066177       -2.0219828374
 C         -1.8131032300       -2.2264513691       -1.5604263782
 C         -1.4785157152       -1.8809300210       -0.2398344260
 N         -1.6667517486       -0.5911485230        0.2258578660
 C         -0.6989192911        0.1956580907        0.9097112566
 C          0.6627781932       -0.0768938163        1.1117727689
 C          1.4184861490       -1.0717511858        0.4383317136
 C          2.7621034487       -1.2198130710        0.6681125731
 C          3.4364908608       -0.3772670450        1.5599772380
 O          4.7645401760       -0.4184850227        1.8360231693
 C          5.6366476828       -1.1206845608        0.9738813344
 C          5.6734446663       -0.5055480212       -0.4289787724
 C          6.0477772570        0.9773828385       -0.3828757287
 C          5.4033306856        1.7639130268       -1.5321081856
 N          3.9789616190        1.8784573071       -1.3688896639
 C          3.0086948997        1.1396445542       -2.0028411937
 C          3.1303326315        0.1263704096       -2.9455091509
 C          1.9731247398       -0.4533659005       -3.4287989579
 C          0.7152984334       -0.0341066540       -3.0025203063
 C          0.5836458711        0.9782501310       -2.0728055650
 C          1.7317312404        1.5642028353       -1.5598519042
 C          1.9606156800        2.6019080975       -0.5962308734
 C          1.1184554018        3.3872551407        0.1780668394
 C          1.6845091423        4.3110380778        1.0340604712
 C          3.0667968335        4.4596689613        1.1181958670
 C          3.9239249901        3.6903038211        0.3546403977
 C          3.3632368015        2.7561424776       -0.5054279874
 C          2.7023762344        0.6171290987        2.2368428642
 C          1.3670857000        0.7680222262        2.0179050290
 N         -1.2270891113        1.3875084767        1.2586478470
 C         -2.4474558631        1.4335344015        0.7662789370
 C         -3.3499870474        2.5368175706        0.7813969564
 C         -2.9609399706        3.7698738429        1.3079180592
 C         -3.8190339763        4.8498902267        1.2616116305
 C         -5.0664614081        4.6974881487        0.6758862354
 C         -5.4643412126        3.4748298614        0.1620482063
 C         -4.6300549267        2.3543946752        0.2098799654
 C         -5.0391139833        1.0380349941       -0.2642176565
 C         -6.3435953950        0.7921839711       -0.6801765466
 C         -6.7712183232       -0.4625359792       -1.0774774422
 C         -5.8890423405       -1.5418725434       -1.0347164183
 C         -4.5923462187       -1.3501411491       -0.6420994584
 C         -4.1130794857       -0.0650527139       -0.2770849357
 C         -2.8005512198        0.1884596724        0.1325162260
 C         -0.9228547713       -2.8548766393        0.6007126878
 H         -0.8641335751       -5.4752593454       -1.5534042293
 H         -1.8459947657       -3.7573219655       -3.0403966826
 H         -2.2342750611       -1.4722520537       -2.2071538595
 H          0.9602276968       -1.6901093489       -0.3130864717
 H          3.2870838089       -2.0021896208        0.1428854346
 H          6.6152513196       -1.0364674563        1.4539591665
 H          5.3647162717       -2.1820814361        0.9197684089
 H          4.6830684341       -0.6035675676       -0.8729638671
 H          6.3799462996       -1.0680123778       -1.0409357365
 H          7.1309884293        1.0995658255       -0.4233750164
 H          5.6930769941        1.4004532184        0.5585552954
 H          5.6096333889        1.2742824942       -2.4864930355
 H          5.8294446162        2.7720253367       -1.5681128369
 H          4.0944105640       -0.2074033844       -3.3007823917
 H          2.0453898382       -1.2468742806       -4.1581143492
 H         -0.1625502661       -0.5093346801       -3.4138869824
 H         -0.3892037352        1.3157983801       -1.7494194542
 H          0.0492195128        3.2611618112        0.1224747113
 H          1.0505385880        4.9308842239        1.6502412410
 H          3.4794473110        5.1921348812        1.7964746212
 H          4.9929393877        3.8205837464        0.4318201957
 H          3.2317468542        1.2600343621        2.9222921023
 H          0.8060804114        1.5348467698        2.5245789253
 H         -1.9758471322        3.8480929957        1.7408005411
 H         -3.5201156502        5.8040559762        1.6682422182
 H         -5.7414328307        5.5389619311        0.6193216781
 H         -6.4430505493        3.4091700609       -0.2855386467
 H         -7.0658723779        1.5926129459       -0.6833947094
 H         -7.7919671986       -0.6081541049       -1.3956529396
 H         -6.2315017900       -2.5305510406       -1.3021099615
 H         -3.9295513468       -2.1958058511       -0.5736909015
 H         -0.6695866299       -2.6042754119        1.6185184595
