  63
        -96.48364795
 C         -4.9889429814        2.1019774095        0.1922030366
 C         -3.6232746121        1.5837542849       -0.2956650845
 C         -3.0042512061        2.5698053734       -1.3045996795
 C         -2.7015909570        1.4659869531        0.8982561178
 C         -2.4204176428        2.5896694015        1.6636633547
 C         -1.6081100293        2.5300544150        2.7807267472
 C         -1.0825558462        1.3105818434        3.1751397772
 C         -1.3432283788        0.1819439567        2.4322026625
 C         -2.1216536635        0.2460557421        1.2677305069
 N         -2.3204023069       -0.9069331768        0.5293843728
 C         -1.3726799634       -1.9483853413        0.6970493500
 C         -1.7285140521       -3.2403723032        1.0641591744
 C         -0.7639958273       -4.2311884321        1.1423600624
 C          0.5637953633       -3.9523719122        0.8590401913
 C          0.9633915237       -2.6641381141        0.5086064230
 N          2.2306081432       -2.3363315070        0.2598694131
 C          2.6003761915       -1.0882144018        0.0033312542
 C          3.9681967789       -0.7591700637       -0.2556249923
 C          4.9287322523       -1.7833794134       -0.2429611324
 C          6.2479524637       -1.5123159734       -0.4963016573
 C          6.6413234087       -0.2017018458       -0.7697092495
 C          5.7156786366        0.8135283228       -0.7827662152
 C          4.3572006335        0.5745259834       -0.5259024371
 C          3.3633236037        1.6222236120       -0.5221838217
 C          3.6692343291        2.9722988121       -0.7493215538
 C          2.6976597805        3.9439994428       -0.7282441020
 C          1.3670317165        3.6086046030       -0.4725118126
 C          1.0305941449        2.2997859557       -0.2480857408
 C          2.0100956442        1.2932172019       -0.2722246347
 C          1.6217425458       -0.0574711753       -0.0272601321
 N          0.3494777979       -0.3740540522        0.1849247184
 C         -0.0281903957       -1.6187878678        0.4421984800
 C         -3.1323314337       -0.9055289207       -0.5972129969
 C         -3.2864820841       -2.0766615522       -1.3484919196
 C         -4.1291748758       -2.1193157877       -2.4373075867
 C         -4.8343751312       -0.9875187433       -2.8087808967
 C         -4.6595197624        0.1808241223       -2.0925097645
 C         -3.8145289833        0.2528015856       -0.9926197902
 H         -5.6790669781        2.2223342017       -0.6376535896
 H         -4.8844343863        3.0631223669        0.6873982899
 H         -5.4209477637        1.3965035310        0.8993823422
 H         -2.8473539551        3.5431954281       -0.8481834917
 H         -2.0435698619        2.1923483618       -1.6499338992
 H         -3.6521133827        2.6974644860       -2.1674526371
 H         -2.8410306912        3.5430748594        1.3820714999
 H         -1.3987736144        3.4251203208        3.3460649844
 H         -0.4698714581        1.2400859022        4.0609911022
 H         -0.9459930159       -0.7698904084        2.7490799297
 H         -2.7605367668       -3.4552212705        1.2969020079
 H         -1.0479878611       -5.2313766353        1.4311793294
 H          1.3196571948       -4.7176730663        0.9341176562
 H          4.5916178519       -2.7865851661       -0.0309098111
 H          6.9807172856       -2.3054740528       -0.4871498534
 H          7.6799137915        0.0156106933       -0.9724712013
 H          6.0532835650        1.8148332145       -0.9987036801
 H          4.6882255042        3.2681154653       -0.9427416560
 H          2.9660712129        4.9751540802       -0.9065999338
 H          0.6097931705        4.3782692740       -0.4502835748
 H          0.0126825037        2.0103291703       -0.0363520961
 H         -2.7300495487       -2.9597061435       -1.0797308998
 H         -4.2327084140       -3.0368439043       -2.9966521426
 H         -5.5015101362       -1.0094397267       -3.6568111011
 H         -5.1923183656        1.0640421783       -2.4104404336
