78
 energy: -124.574345766610 gnorm: 0.000062884907 xtb: 6.7.1 (edcfbbe)
N           -1.97515159981683        6.66078851204179       -0.79776053555024
C           -2.31609009584719        5.57216339737466       -0.67361967470756
C           -2.73619590642441        4.23189427093806       -0.51801371131418
C           -2.35382267419480        3.26809693513163       -1.45337246547981
C           -2.76400054925789        1.95975659973007       -1.29745457092860
C           -3.55805606124223        1.60418630121711       -0.20926541782470
N           -3.94063693625952        0.26318449177518       -0.03596509646999
C           -3.06668111009751       -0.79161696954392        0.14311350030711
C           -1.61704509847943       -0.67668908695659        0.16083666088456
C           -0.86668252835065       -1.71203928315283       -0.39906512190124
C            0.51066671390097       -1.65767563125958       -0.40432911672422
C            1.18449299458128       -0.56933217424387        0.15033113947693
C            2.65211645825948       -0.50636811200690        0.13072311226964
C            3.31199186875306        0.68900407835087       -0.15053674567898
C            4.69085970787972        0.74616502295542       -0.18773031549637
C            5.44563163368844       -0.39386774525431        0.07613823510659
N            6.84657265330888       -0.34104438570309        0.04242075628301
C            7.66906664323076       -1.20148177612009       -0.65792021995279
C            7.33597750850597       -2.24751814803748       -1.50739868169149
C            8.36661577885642       -2.94328652247909       -2.11018853852604
C            9.70045070409243       -2.60798590838574       -1.88496094694571
C           10.03744326650878       -1.55250331215461       -1.06092470242202
C            9.01875108021733       -0.83675032476499       -0.44447368501666
C            8.99982782459699        0.30020074600309        0.43332401035859
C            9.99453575792072        1.08329205654468        1.00536878805922
C            9.62435111312903        2.11597410937216        1.84394049922583
C            8.28218009186157        2.36312625614516        2.12638428851473
C            7.27483289047160        1.59831384094784        1.56954918609190
C            7.63932107043278        0.57415889035344        0.70645696887606
C            4.79545554046709       -1.58944093358526        0.37174660003632
C            3.41644374146960       -1.64348455057755        0.38879808863230
C            0.43236353106147        0.45121790391255        0.72974956622188
C           -0.94699217614505        0.39802216387588        0.74366559063813
N           -3.69569122028776       -1.92650649781741        0.31038504761090
C           -5.02327155661387       -1.63635903325138        0.24811791020036
C           -6.11883772795211       -2.52939719015820        0.41535159808679
C           -5.91497837514204       -3.88720603123767        0.68537828406092
C           -6.98534912233175       -4.72296612325065        0.88601866960995
C           -8.27818941025591       -4.20568128307447        0.82409372673650
C           -8.49055689315714       -2.87441469637884        0.55053170900241
C           -7.42307375132458       -1.99054390764264        0.32682568020051
C           -7.61473851851968       -0.58914682372541       -0.00646702934010
C           -8.89469821874739       -0.04800558767534       -0.19699951595567
C           -9.08659186835958        1.26365966237822       -0.56221557048163
C           -7.99193117067855        2.09567164472627       -0.77607967620001
C           -6.72181314437499        1.60708567247820       -0.59197194643834
C           -6.50448465276711        0.28205561837067       -0.18653959789215
C           -5.21037353051383       -0.27510095719551        0.02029675856763
C           -3.93864371530391        2.56643861603525        0.72672646243023
C           -3.53289530841274        3.87560878344699        0.57340605713690
H           -1.74078831999440        3.55130678394017       -2.29547186677577
H           -2.47292104041925        1.20636402912905       -2.01353305945463
H           -1.38783805391853       -2.55193332270050       -0.83236926003370
H            1.07400494804970       -2.45665031903689       -0.86282374524989
H            2.73765490263256        1.57607225271332       -0.37358870859916
H            5.19136272183211        1.67006859116422       -0.43698915861960
H            6.30556300089474       -2.50495218935376       -1.70123157263348
H            8.13310836129283       -3.76355851093098       -2.77347599121962
H           10.47791517477437       -3.17869239339501       -2.37164260046385
H           11.07071084733902       -1.28319008311449       -0.89943956908913
H           11.03537642747906        0.88242836260976        0.79914411027065
H           10.38268841070785        2.73797989526553        2.29676708656784
H            8.02365389483241        3.16852549304408        2.79861800175250
H            6.23911737457578        1.78747060691803        1.80831463027758
H            5.37807783186678       -2.46942896882401        0.60040082775035
H            2.92382005045491       -2.57233073752643        0.63510120753140
H            0.93503923376601        1.28373257945923        1.19958790549744
H           -1.50060201752502        1.18464628733450        1.23421444133619
H           -4.89798839870500       -4.24506480060454        0.73768091968661
H           -6.83135481982801       -5.77096320883765        1.09710025489355
H           -9.12356977745287       -4.85729749108995        0.99234559349322
H           -9.50800873952396       -2.51901396019672        0.51609841811233
H           -9.76398102711765       -0.67190594733555       -0.06745478218638
H          -10.08820133087664        1.64389033861674       -0.69917619644851
H           -8.13838577474623        3.11867779462181       -1.08992314524533
H           -5.87699063774516        2.24944445538819       -0.78213211690158
H           -4.55249720742645        2.27823140420332        1.56728871564138
H           -3.82297030721439        4.62536213235414        1.29393018081976
