78
 energy: -124.493073653275 gnorm: 0.000027712221 xtb: 6.7.1 (edcfbbe)
N           -2.42772086122796        6.91934076595854       -0.80525283842343
C           -2.69394765234923        5.80423462772396       -0.68235180310968
C           -3.01720356841825        4.44921626668834       -0.53130181504852
C           -2.55062674887434        3.50098925615298       -1.45801049925611
C           -2.86425634990585        2.17336575867513       -1.30512572589303
C           -3.66333392412310        1.75334382602481       -0.23051067400731
N           -3.96637174777649        0.40048620297656       -0.07680983788923
C           -3.02214425340275       -0.64576813253753       -0.04213924763669
C           -1.62124283904622       -0.53963734762387        0.02027998955429
C           -0.85839866477148       -1.71853700994523       -0.22510438312779
C            0.50181103656966       -1.70733951609294       -0.19355888487457
C            1.22935528371920       -0.52443295318137        0.09315448398725
C            2.66740216543926       -0.49930642234791        0.09328310380586
C            3.38077185323089        0.69451530614252       -0.14378792098982
C            4.75271365162496        0.72338471413785       -0.14965491601888
C            5.48904131392477       -0.44449003951245        0.08238532813022
N            6.88177814559421       -0.41830532824484        0.07465039355982
C            7.70369165371843       -1.30794442218665       -0.59242874588395
C            7.36890497186324       -2.36065337666727       -1.43390112221554
C            8.40023827962197       -3.08142099232685       -2.00807038124467
C            9.73367635809452       -2.76139825560109       -1.76512219405431
C           10.07310470080590       -1.69364966604065       -0.95340475866505
C            9.05532905884874       -0.95665471373843       -0.36639741416347
C            9.03890475078442        0.20237635071719        0.48704787253368
C           10.03557723782933        0.97787835913562        1.06044490436216
C            9.66657834366455        2.03291261406526        1.87587729453752
C            8.32521757642274        2.30266317035498        2.13581025685094
C            7.31458442297338        1.54243176402274        1.57592479216409
C            7.67793678626964        0.50232728021657        0.73064600258440
C            4.80001427368191       -1.63957905096929        0.32143751302719
C            3.42802215017732       -1.66421954596268        0.32605136707120
C            0.46898731800954        0.63030356458988        0.39815627697218
C           -0.89438975779596        0.63036235939713        0.37199413967148
N           -3.63946654101571       -1.83867836370387        0.02622210939966
C           -4.94131818502951       -1.59139375503697        0.09829606837304
C           -5.99414134759305       -2.53734913802940        0.27009058951642
C           -5.71536531520107       -3.89752149273594        0.43104497871519
C           -6.73551839769280       -4.79713998798605        0.64512477531853
C           -8.04521252602503       -4.33523317983903        0.70857577029404
C           -8.33112735754514       -2.99472836390943        0.54275986993009
C           -7.32155560040653       -2.05310103180121        0.30679169931450
C           -7.59176558136507       -0.64151785605295        0.07372672640215
C           -8.89843938742171       -0.15823311557731       -0.02095192727613
C           -9.17702485121370        1.16409752550812       -0.30026747202685
C           -8.13532165253291        2.06072500161290       -0.52661519354947
C           -6.83616033941359        1.63309975533000       -0.43181154472029
C           -6.52278878185303        0.29603835688310       -0.10386471243586
C           -5.20491719081362       -0.19364222306673        0.00739934329140
C           -4.13061299860049        2.69934689402334        0.69481742803336
C           -3.81032330523181        4.02665958339413        0.55037538165259
H           -1.94864683233766        3.82820298829451       -2.29280193389921
H           -2.50706400502738        1.44144006588734       -2.01409196080496
H           -1.40242045739693       -2.61842562312204       -0.46493848476158
H            1.03760977672770       -2.61196353638481       -0.43652695653613
H            2.84003256749019        1.59942850963487       -0.37340380074934
H            5.27487785550736        1.64143752897598       -0.37493630788498
H            6.33935730752343       -2.60298385765788       -1.64745815248612
H            8.16543143587085       -3.90677803285653       -2.66372409173125
H           10.51142856463403       -3.34951499251873       -2.22922580133046
H           11.10686774261700       -1.43346260038875       -0.78384061125098
H           11.07616900880813        0.75689879485263        0.87755818598571
H           10.42743207628996        2.65069169361844        2.32932009751140
H            8.06760370824209        3.11970641782959        2.79338919712922
H            6.27957562664564        1.74620926045054        1.80290259046589
H            5.35941637430324       -2.53633601767496        0.54274299285418
H            2.92492144096776       -2.58907371377286        0.56028976013633
H            0.97864365226884        1.52962945214577        0.71003724325964
H           -1.42356288458593        1.51818542421727        0.67841238907889
H           -4.68316735525047       -4.20959812728518        0.39031197779905
H           -6.52221660514003       -5.84807637580493        0.76993244873155
H           -8.85182050743738       -5.03094130274907        0.88895346014333
H           -9.36207893237876       -2.68572018476574        0.60458810690664
H           -9.72939738660070       -0.83159231516255        0.11228951831510
H          -10.20191235394834        1.49759571166174       -0.36242518130143
H           -8.34771165441153        3.08839357234227       -0.78200428807380
H           -6.03749929500836        2.32665159997515       -0.63536956220613
H           -4.73321338231635        2.37003167996026        1.52880665329525
H           -4.15716094279845        4.75456075134615        1.26903110197266
