98
 energy: -161.482339216333 gnorm: 0.000059674094 xtb: 6.7.1 (edcfbbe)
N           11.60154470850467        2.01689927228247        0.16690049843800
C           10.47629584971317        1.79507343749462        0.19708258154371
C            9.09781494348115        1.49951585117167        0.23023804698210
C            8.66937855343750        0.17738194008795        0.11142036108242
C            7.31414026286043       -0.13749758001084        0.14205913475050
N            6.86592468807076       -1.38661761829011        0.06389384082007
C            5.57184388673491       -1.68458045825474        0.09383870798512
C            5.19601517378308       -3.09912178523002        0.11246713001287
C            5.90376611394480       -4.00238492865120       -0.67955070329089
C            5.57464931545513       -5.34431236366580       -0.66982411018460
C            4.54504603963185       -5.80405923821748        0.13478950282879
C            3.85633981111692       -4.91575374107214        0.94590554505742
C            4.17905627843701       -3.57281723139107        0.94108077984659
C            4.62839807001696       -0.63928978549840        0.14224562377515
C            3.19003258158300       -0.86759057874254        0.03423245542077
C            2.66854315513644       -1.75806209049440       -0.90562484650245
C            1.30737825824988       -1.95372846335570       -0.99985479300499
C            0.44233372688918       -1.25811834629159       -0.15864105064760
N           -0.93963340769091       -1.49488733014153       -0.22335038570464
C           -1.49027246292642       -2.71528032810997        0.11807784345932
C           -0.84067750016626       -3.91967275015876        0.33998139500463
C           -1.60041199842918       -4.99507623742315        0.75633411445995
C           -2.96597574442617       -4.85590109809806        0.98628047312087
C           -3.61146729978009       -3.65256655364069        0.78399548732839
C           -2.88401616829331       -2.56446668425217        0.30783567800082
C           -3.17870825415298       -1.18338006729756        0.03402755545439
C           -4.34019760478325       -0.39613928584198        0.00953920872646
C           -4.27195566141556        1.01856885186652       -0.06493638985758
C           -5.63029410308321        1.49327773013043       -0.05371938148466
C           -6.24379176880334        2.73398180165711       -0.21117665362472
C           -7.62182004958632        2.81026030842622       -0.20668091129475
C           -8.41137963351140        1.67123321155189       -0.08073441506104
C           -7.83442405120234        0.42183634000408        0.02925688209485
C           -6.45035599907890        0.34422677571076        0.04776687262849
N           -5.65603714921758       -0.78462639523906        0.08745227876122
C           -6.16549836814766       -2.07497203622918       -0.13944558826430
C           -5.75788665715215       -2.79199350208282       -1.26017380138545
C           -6.27745100054554       -4.05055782856202       -1.49679269239474
C           -7.21076565121642       -4.59437929283504       -0.62946657941771
C           -7.62295963945403       -3.87724208310373        0.48145618413118
C           -7.10362677889067       -2.61950085983254        0.73134635704086
C           -3.01040143906972        1.61416383188859       -0.22679371151125
C           -1.86155718670846        0.82567272093577       -0.48902990050767
C           -0.81898864119120        1.73829954241762       -0.87159479953273
C            0.46081975294915        1.60212721094690       -1.40428735958371
C            1.21580680774450        2.73509091627929       -1.62993035547051
C            0.72062328861625        4.00322192059760       -1.33930446818036
C           -0.57093796205687        4.17248912940772       -0.87982090593945
C           -1.34589389281903        3.03877274317715       -0.68885457087404
N           -2.66834717653969        2.94544932927431       -0.29884735467575
C           -3.38942169952797        4.02505986985699        0.23655747795379
C           -3.56908447916919        5.18872025852866       -0.50480838948206
C           -4.25114534246511        6.25696308231178        0.04980799473627
C           -4.75759150294231        6.17075033397576        1.33614236703843
C           -4.58147449480006        5.01051274121460        2.07244678293386
C           -3.89490737436921        3.94040988946962        1.53087091917806
C           -1.94176476894665       -0.55509171892064       -0.25460193644079
C            0.95494015947367       -0.35636107427643        0.77019503382318
C            2.31608294106036       -0.15552030752987        0.85597882730250
N            5.05350411820788        0.61536234844757        0.26780445569393
C            6.34397482840418        0.92977017539732        0.28648658675131
C            6.79422318396774        2.24162405025925        0.41166731368466
C            8.15730946896582        2.53371175928265        0.38591064334870
C            8.58856487427983        3.87068421981325        0.51176268519717
N            8.91909025837006        4.96443039081924        0.61525607819104
H            9.38811277151902       -0.61991916688339        0.00497125528626
H            6.70536333491086       -3.63705243287372       -1.30355494557418
H            6.12451240164430       -6.03488604647177       -1.29204880532762
H            4.28654864103595       -6.85240884834386        0.13854340282693
H            3.06759812739267       -5.27290798281452        1.59191115751100
H            3.65350497716499       -2.89021364960435        1.59250114855690
H            3.33283990444044       -2.28354843793880       -1.57481948815782
H            0.90265104341478       -2.62696051634707       -1.74071856692817
H            0.22737827133317       -4.00931729151768        0.21083207509759
H           -1.12435732819517       -5.94828408411097        0.93010036713291
H           -3.53072648609448       -5.70266795572483        1.34651242651974
H           -4.65712159270754       -3.56542100599917        1.02244143763178
H           -5.66681068449290        3.62954419688257       -0.35758298772956
H           -8.09641335652911        3.77346239259145       -0.31953152580410
H           -9.48697061352234        1.76262444642630       -0.09117932709298
H           -8.44315375108412       -0.46785689507310        0.07852145006535
H           -5.03398772791567       -2.35818863459115       -1.93331716807022
H           -5.95643106603281       -4.60665386785636       -2.36450644619379
H           -7.61623088735788       -5.57668634354437       -0.81830470553622
H           -8.34714929440728       -4.30077057029467        1.16134110983211
H           -7.40291184725065       -2.06470062002116        1.60823177358957
H            0.85687103992014        0.63599800895017       -1.66673773737969
H            2.21102303119302        2.63461627591184       -2.03559241969610
H            1.34579915500452        4.86877857644043       -1.49768237824833
H           -0.96190413936971        5.15775651410046       -0.67818671843670
H           -3.19753370220651        5.23947525059628       -1.51726209938633
H           -4.39387836130339        7.15729939483925       -0.52893959933050
H           -5.29130333086350        7.00610377075262        1.76302482692813
H           -4.97558958699700        4.94057494803654        3.07496584875157
H           -3.75067610668953        3.03318230657153        2.09817644528049
H            0.28047051906191        0.18222517263070        1.41826346636468
H            2.71921567201462        0.54471526039160        1.57094977801004
H            6.06919534828186        3.03310478205596        0.51933139532129
