98
 energy: -161.527356236114 gnorm: 0.000095252430 xtb: 6.7.1 (edcfbbe)
N           11.57688099408300        1.97903074045636       -0.20541515784563
C           10.46246177054108        1.74247038928332       -0.08540179380212
C            9.08893220240764        1.43239471169964        0.05666533427904
C            8.65162967205401        0.13768679277690       -0.11016491460570
C            7.28644079893780       -0.15921588318246        0.04006159713876
N            6.86401196802859       -1.43680625740718       -0.01652805901736
C            5.58436536778020       -1.68539859608435        0.10246123852515
C            5.18117222798023       -3.09097323012992        0.19568543969451
C            5.84392295939410       -4.04558659624134       -0.57304609666668
C            5.47362288903299       -5.37498349277307       -0.50287547730494
C            4.45101466234973       -5.76778923008200        0.34540237699117
C            3.80879859797286       -4.82762560904532        1.13559260719527
C            4.16831582560648       -3.49553625255807        1.06457669652130
C            4.63326208065166       -0.60415414555652        0.16893520220542
C            3.19463489703464       -0.82427108866788        0.03331299658259
C            2.69286046439559       -1.74210577704390       -0.88986250724730
C            1.33379263493833       -1.94115626419576       -1.00328143234349
C            0.45172710459633       -1.23137686545151       -0.19041987767156
N           -0.92174976570500       -1.47958935056397       -0.26902018429990
C           -1.46703908220548       -2.70754599992416        0.06329485689537
C           -0.81440216794808       -3.91213037804380        0.27314643941339
C           -1.56831906413962       -4.99258112556762        0.68757356567154
C           -2.93155851378068       -4.85799444982239        0.92951169069317
C           -3.57937833673986       -3.65342671756436        0.74283550243205
C           -2.85838805806374       -2.56089924146595        0.26841295244620
C           -3.16092990062475       -1.17711440913053        0.01156243924448
C           -4.32729455994798       -0.39537454499696        0.00158090325640
C           -4.26647111811700        1.01735738401542       -0.06297450955997
C           -5.62758090671466        1.48628912473574       -0.03903368765890
C           -6.24681606713205        2.72507054114208       -0.18563084590104
C           -7.62488984023304        2.79625410846797       -0.17365963575817
C           -8.40894575542940        1.65336061083967       -0.05088502742434
C           -7.82618750736261        0.40618260952556        0.04870309131984
C           -6.44161450298891        0.33362877745779        0.05992531142675
N           -5.64216403987618       -0.79238958572781        0.08760720586719
C           -6.14536104810360       -2.08137277407501       -0.15373505226291
C           -5.73215430024834       -2.78715052187726       -1.27983273232595
C           -6.24507958881383       -4.04582794091672       -1.52930196561269
C           -7.17857737058120       -4.60190271603847       -0.67005128399101
C           -7.59679694486944       -3.89655786662630        0.44609123517027
C           -7.08330921546716       -2.63923141720827        0.70913020399354
C           -3.00950059656358        1.62048394900727       -0.23108861220359
C           -1.86030340039467        0.84076254485368       -0.50536551320146
C           -0.82592572146461        1.76068689388524       -0.89489229026307
C            0.44778442848010        1.63242281451506       -1.44301419489957
C            1.19564524707963        2.76898108666387       -1.67377345477499
C            0.69865702348402        4.03316393367941       -1.37148129868742
C           -0.58844356053367        4.19462062519458       -0.89740017890472
C           -1.35738995503647        3.05751589050552       -0.70277398726183
N           -2.67586841591016        2.95642794753922       -0.30153382341895
C           -3.39415663305281        4.02459369985969        0.25769196807913
C           -3.58185180550240        5.20144754341427       -0.46073944536985
C           -4.26241552044448        6.25801799594685        0.11734882284058
C           -4.76128959707500        6.14766196995524        1.40471478815750
C           -4.57862622382164        4.97430372344572        2.11814625011724
C           -3.89238583682664        3.91627585649032        1.55328649268308
C           -1.93309024564304       -0.54121439856814       -0.27849063725455
C            0.94886145687633       -0.30151768234322        0.72163376042868
C            2.30692113411465       -0.08999117012955        0.81864000028648
N            5.03945912351658        0.62971408528217        0.33577930026808
C            6.36073936167521        0.88578501495694        0.31926011404996
C            6.82493525912524        2.19877148582242        0.50979543512598
C            8.16800256747638        2.47092260026272        0.38070386500489
C            8.64668363416457        3.79074431505599        0.56060191813712
N            9.02031600316192        4.86318496055477        0.71039802967310
H            9.34124082830904       -0.66031168402989       -0.33892827107007
H            6.63960847003659       -3.72575831426117       -1.22827564736653
H            5.98445703338201       -6.10772819323229       -1.10962227057784
H            4.16025875828925       -6.80633869244885        0.39791689156334
H            3.02461340457302       -5.13370652027417        1.81216432086786
H            3.67797290344645       -2.77100963247757        1.69809798777376
H            3.36795377897916       -2.27967398190761       -1.53907347474778
H            0.94316758774961       -2.63036394077374       -1.73666432809813
H            0.25336135334059       -4.00111348346577        0.13881660197081
H           -1.08803973774564       -5.94586217708305        0.85059283940754
H           -3.49226583380183       -5.70847299389706        1.28778125841980
H           -4.62264031247596       -3.56857326890094        0.99256857920484
H           -5.67403133716124        3.62383489609898       -0.32997688538876
H           -8.10396539347069        3.75839366251317       -0.27858608114505
H           -9.48519566656240        1.74017068290714       -0.05613490728903
H           -8.43148632352756       -0.48623417600054        0.09452148471120
H           -5.00799097871113       -2.34424786952291       -1.94675311794224
H           -5.91879975266656       -4.59279236417039       -2.40105739402829
H           -7.57923500805912       -5.58434480271112       -0.86901870854305
H           -8.32114978636065       -4.32952086973242        1.12011648708314
H           -7.38733411138352       -2.09419068792614        1.59053498232393
H            0.84385778846348        0.66871617644877       -1.71613893749456
H            2.18619739865975        2.67438326235198       -2.09297066276905
H            1.31813290553969        4.90252258455199       -1.53339787291093
H           -0.98074090261163        5.17779628608928       -0.68769490923884
H           -3.21795893130937        5.27136833376960       -1.47484974937647
H           -4.41104670905642        7.16834919975019       -0.44437703267981
H           -5.29485968315829        6.97381025859140        1.84965959529922
H           -4.96795860874338        4.88461851949260        3.12113094123874
H           -3.74445300996898        2.99864006390489        2.10264942652625
H            0.26253223102893        0.24813847465843        1.34692252697354
H            2.70204626847696        0.63000491360817        1.51799303920326
H            6.11447973686435        2.97883435913672        0.73666768715861
