  98
       -161.52719555
 N         11.5916834334        1.9320393123       -0.3700095619
 C         10.4765092669        1.7070811226       -0.2366584900
 C          9.1017539436        1.4108472430       -0.0774649797
 C          8.6566402007        0.1130436761       -0.1888939643
 C          7.2906000109       -0.1697734038       -0.0196589394
 N          6.8616628188       -1.4464501729       -0.0238224041
 C          5.5814898762       -1.6828033161        0.1126459763
 C          5.1698671250       -3.0807426425        0.2639360042
 C          5.8211690772       -4.0706641367       -0.4688174578
 C          5.4445993281       -5.3937958192       -0.3389234300
 C          4.4274320502       -5.7446586672        0.5338417144
 C          3.7957262990       -4.7681595011        1.2873275474
 C          4.1611234424       -3.4422537598        1.1560927843
 C          4.6365950239       -0.5947140104        0.1447322086
 C          3.1965952569       -0.8174168240        0.0251817404
 C          2.6924968589       -1.7503737088       -0.8812981528
 C          1.3332264492       -1.9506820479       -0.9888713430
 C          0.4530295533       -1.2314066164       -0.1821309801
 N         -0.9205113113       -1.4793211021       -0.2572369908
 C         -1.4679276401       -2.7086511981        0.0664479338
 C         -0.8173192119       -3.9139292431        0.2791566373
 C         -1.5751795287       -4.9961510792        0.6816341352
 C         -2.9409785704       -4.8633007871        0.9095061699
 C         -3.5868960554       -3.6578788740        0.7220269725
 C         -2.8611217637       -2.5632358127        0.2601030342
 C         -3.1618872196       -1.1784540510        0.0075614631
 C         -4.3281647122       -0.3964737160       -0.0038337828
 C         -4.2661719641        1.0167049477       -0.0542504371
 C         -5.6270276666        1.4863793177       -0.0331427327
 C         -6.2443674718        2.7272916671       -0.1691521167
 C         -7.6224356516        2.7993290145       -0.1656783278
 C         -8.4080312247        1.6555681219       -0.0621298313
 C         -7.8268206131        0.4069331398        0.0274854362
 C         -6.4423865300        0.3332363555        0.0480164687
 N         -5.6438088421       -0.7935222916        0.0695374690
 C         -6.1460072054       -2.0797297694       -0.1878178126
 C         -5.7239080258       -2.7756920717       -1.3167038614
 C         -6.2356497323       -4.0316486510       -1.5817672274
 C         -7.1767441569       -4.5946757495       -0.7354567026
 C         -7.6038745880       -3.8990084496        0.3833696476
 C         -7.0916641019       -2.6445662048        0.6620142722
 C         -3.0081289019        1.6201600373       -0.2126146949
 C         -1.8591486524        0.8419207438       -0.4917042110
 C         -0.8248519970        1.7643300188       -0.8751383098
 C          0.4468255748        1.6389435337       -1.4286056688
 C          1.1958473585        2.7764969752       -1.6506862613
 C          0.7017103814        4.0383673004       -1.3343804450
 C         -0.5842070151        4.1975660528       -0.8560835759
 C         -1.3547472622        3.0600132517       -0.6708744586
 N         -2.6732237406        2.9565295007       -0.2699629041
 C         -3.3911230530        4.0177307889        0.3026366699
 C         -3.5771005376        5.2048116293       -0.3991474482
 C         -4.2590665259        6.2529233252        0.1925828328
 C         -4.7611241300        6.1241061617        1.4769653044
 C         -4.5799658634        4.9406727751        2.1739347776
 C         -3.8922922578        3.8910107172        1.5955155588
 C         -1.9322343057       -0.5412640306       -0.2716582495
 C          0.9532161965       -0.2915187723        0.7180012918
 C          2.3114481035       -0.0748973214        0.8050377538
 N          5.0493180353        0.6425486863        0.2601342312
 C          6.3721495190        0.8904517874        0.2234971135
 C          6.8443596904        2.2076654949        0.3565103129
 C          8.1879067081        2.4670147726        0.2078171765
 C          8.6751297877        3.7905000522        0.3266395344
 N          9.0539722616        4.8667716012        0.4261469865
 H          9.3405398353       -0.6977058386       -0.3879896566
 H          6.6133894976       -3.7835872366       -1.1430212406
 H          5.9469023455       -6.1546040809       -0.9173955169
 H          4.1328637305       -6.7786305022        0.6341627089
 H          3.0155806468       -5.0406768447        1.9824990056
 H          3.6793651444       -2.6887151585        1.7614917414
 H          3.3664448501       -2.2978521798       -1.5235110717
 H          0.9410372781       -2.6486533854       -1.7130346691
 H          0.2518282751       -4.0026583891        0.1565300967
 H         -1.0960811569       -5.9497681842        0.8461407837
 H         -3.5051753329       -5.7156068094        1.2577367831
 H         -4.6327515768       -3.5740681360        0.9610472908
 H         -5.6700385436        3.6273534593       -0.2985878281
 H         -8.1000801612        3.7630264888       -0.2623093519
 H         -9.4841634653        1.7431292019       -0.0743524713
 H         -8.4331223083       -0.4854360715        0.0587963642
 H         -4.9941265480       -2.3273081592       -1.9737485331
 H         -5.9033902561       -4.5705154682       -2.4563259608
 H         -7.5772351662       -5.5745095063       -0.9472308192
 H         -8.3345178928       -4.3372065141        1.0471168259
 H         -7.4022676361       -2.1075025191        1.5459990998
 H          0.8397315683        0.6770473568       -1.7128135453
 H          2.1849308160        2.6844178814       -2.0738332518
 H          1.3222635034        4.9082602648       -1.4891391707
 H         -0.9743364902        5.1794229094       -0.6364265449
 H         -3.2112799618        5.2893437142       -1.4114147160
 H         -4.4065763655        7.1711548160       -0.3564133998
 H         -5.2960851933        6.9436298321        1.9323441987
 H         -4.9716883289        4.8364788155        3.1745743219
 H         -3.7456099020        2.9656190696        2.1320403841
 H          0.2693944148        0.2636529051        1.3410981051
 H          2.7075856929        0.6556381424        1.4928505328
 H          6.1390816259        3.0001678542        0.5544787095
