  84
  -131.407055566800       0.476778796481832      !
 C         -6.4517018830       -1.6833415397       -0.2504155274
 C         -5.7227938696       -0.7401885233       -1.2119580846
 C         -5.7481777836       -1.3039989110       -2.6358134517
 C         -6.3114029767        0.6530500588       -1.1647203436
 C         -7.5881028178        1.0631708330       -1.4801633108
 C         -7.9078688192        2.4097615029       -1.3615221302
 C         -6.9621118197        3.3285601986       -0.9340222912
 C         -5.6755891569        2.9252590501       -0.6149786661
 C         -5.3540443739        1.5830711505       -0.7320569980
 C         -4.1111790081        0.8775308441       -0.4783468925
 C         -2.8853154105        1.3294465247       -0.0207934215
 C         -1.8421398620        0.4310221204        0.1423696118
 C         -2.0286956188       -0.9217187883       -0.1715123167
 C         -3.2764408292       -1.3807024790       -0.6062155147
 C         -4.3055227631       -0.4829718252       -0.7535409655
 N         -0.9534832126       -1.7984658714       -0.0860232190
 C         -1.1972209324       -3.1978597834       -0.1563789684
 C         -1.4440673440       -3.8881691933        1.0220550030
 C         -1.6936775485       -5.2490275656        0.9819872897
 C         -1.6978837503       -5.9192061795       -0.2298568652
 C         -1.4527196282       -5.2290747477       -1.4059937474
 C         -1.2028214147       -3.8686864012       -1.3736544977
 C          0.3341011848       -1.3158499144       -0.1580540861
 C          1.4048284537       -2.1340891173       -0.5305402686
 C          2.6704868607       -1.6151759514       -0.6751722043
 C          2.9151459481       -0.2550523928       -0.4698556149
 C          4.2324734829        0.3260270519       -0.6778177872
 C          4.3908713291        1.6506581612       -1.0574902343
 C          5.6366405434        2.2406021539       -1.2688654500
 C          6.8161499423        1.5349334049       -1.1086535210
 C          8.0690723359        2.1360206871       -1.3247479112
 N          9.0822497855        2.6459943797       -1.5028793122
 C          6.7168810130        0.1792400270       -0.7199142006
 N          7.7171616338       -0.6719543023       -0.5010838249
 S          7.0996118124       -2.0889290549       -0.0677135378
 N          5.5445601638       -1.7002378063       -0.1386704970
 C          5.4259878173       -0.4245799589       -0.5120460679
 C          1.8511930789        0.5445869140       -0.0407221258
 C          0.5830258235        0.0339897765        0.1353773160
 C         -0.5276017935        0.8442288383        0.7745662380
 C         -0.2851711446        2.3279512292        0.5693659106
 C         -0.1567925299        3.2228316600        1.6209255550
 C          0.0715962166        4.5671995459        1.3736819528
 C          0.1730139276        5.0326489688        0.0753324202
 C          0.0405941647        4.1455732754       -0.9813759803
 C         -0.1872988548        2.8055698354       -0.7353395156
 C         -0.5669218519        0.4792971621        2.2619853024
 C          0.6116387257        0.2325446362        2.9573634945
 C          0.5851158025       -0.0962389784        4.3007262146
 C         -0.6207737004       -0.1837096415        4.9746580409
 C         -1.7981449807        0.0692340361        4.2933996381
 C         -1.7718235232        0.3991329459        2.9493385066
 H         -7.4873883908       -1.8082419026       -0.5571703231
 H         -5.9703489667       -2.6587254780       -0.2405713150
 H         -6.4351229315       -1.2769782646        0.7586263759
 H         -5.2597953059       -2.2754239841       -2.6658414367
 H         -6.7736582622       -1.4187365458       -2.9786034894
 H         -5.2284007484       -0.6312567874       -3.3147299171
 H         -8.3335123880        0.3561896718       -1.8148389441
 H         -8.9052251836        2.7449089213       -1.6055990390
 H         -7.2324937650        4.3710521653       -0.8493756797
 H         -4.9389750688        3.6422410544       -0.2832109205
 H         -2.7437795969        2.3701612218        0.2276333830
 H         -3.4183942399       -2.4275400797       -0.8265465306
 H         -1.4383559804       -3.3506877428        1.9591030201
 H         -1.8846481187       -5.7859028645        1.8989380628
 H         -1.8932473346       -6.9804435622       -0.2589987957
 H         -1.4581510510       -5.7505751638       -2.3515263988
 H         -1.0147701924       -3.3189034360       -2.2846954952
 H          1.2356148248       -3.1838964341       -0.7133729132
 H          3.4809758951       -2.2608559048       -0.9699591200
 H          3.5120846665        2.2550483123       -1.2217967463
 H          5.6862027886        3.2762629968       -1.5720278648
 H          2.0336631650        1.5782608773        0.2106409436
 H         -0.2344375841        2.8744944288        2.6396925615
 H          0.1707836334        5.2521597071        2.2031153336
 H          0.3526786159        6.0804394791       -0.1143137535
 H          0.1149067105        4.5006832995       -1.9990166940
 H         -0.2912770947        2.1143982853       -1.5597398512
 H          1.5614053523        0.2979667573        2.4485027474
 H          1.5123198071       -0.2850292233        4.8219389986
 H         -0.6418514298       -0.4437544585        6.0225258154
 H         -2.7458550657        0.0111300480        4.8088441513
 H         -2.7008759851        0.5979585861        2.4368918105
  84
  -131.406578065400       0.287655368373382      !
 C         -6.4359131608       -1.6417369648       -0.3813672609
 C         -5.6531571222       -0.7191519425       -1.3205457022
 C         -5.6196995933       -1.3012731730       -2.7366865918
 C         -6.2274989930        0.6808844599       -1.3165507563
 C         -7.4803038633        1.1028672351       -1.7041098936
 C         -7.7887747464        2.4545206503       -1.6171675976
 C         -6.8560083742        3.3666414068       -1.1489735048
 C         -5.5937570107        2.9514089807       -0.7565954106
 C         -5.2833881737        1.6042751353       -0.8424052633
 C         -4.0624730029        0.8878802046       -0.5214147339
 C         -2.8546229630        1.3332883091       -0.0124256334
 C         -1.8271443454        0.4271188389        0.1980369145
 C         -2.0121722476       -0.9256789724       -0.1146968116
 C         -3.2426314732       -1.3781306633       -0.6011577571
 C         -4.2563535856       -0.4723838063       -0.7983270606
 N         -0.9442834295       -1.8086228511        0.0088128075
 C         -1.2081347072       -3.2039823647       -0.0240236100
 C         -1.6311279225       -3.8223431531        1.1454018097
 C         -1.9081702748       -5.1778956373        1.1459207378
 C         -1.7643633832       -5.9166923617       -0.0168457375
 C         -1.3472268925       -5.2985021920       -1.1843759613
 C         -1.0713761779       -3.9427440575       -1.1932332013
 C          0.3449101890       -1.3283800088       -0.0627990270
 C          1.4221089390       -2.1430169991       -0.4229673002
 C          2.6799897002       -1.6123423385       -0.5922779546
 C          2.9134339153       -0.2464492719       -0.4131392062
 C          4.2126789953        0.3498437810       -0.6818174300
 C          4.3336487468        1.6767674065       -1.0680687269
 C          5.5563596470        2.2800410854       -1.3599436021
 C          6.7507120870        1.5856640632       -1.2822859304
 C          7.9793384604        2.1967401799       -1.5902829062
 N          8.9721515291        2.7129417652       -1.8477443845
 C          6.6907476629        0.2293946089       -0.8874492671
 N          7.7122039430       -0.6115950610       -0.7381124908
 S          7.1404546970       -2.0353578295       -0.2665756703
 N          5.5801223482       -1.6623020539       -0.2309783521
 C          5.4228961068       -0.3877220016       -0.5932955853
 C          1.8503140422        0.5443207015        0.0361039649
 C          0.5889715499        0.0243871314        0.2270772446
 C         -0.5276014952        0.8216485449        0.8725768062
 C         -0.2753274876        2.3098041498        0.7257808372
 C         -0.1374586566        3.1590469770        1.8133671201
 C          0.1009717245        4.5107621851        1.6223019943
 C          0.2048346223        5.0291956180        0.3444235818
 C          0.0667462503        4.1875954595       -0.7481431754
 C         -0.1717255935        2.8402784691       -0.5580703428
 C         -0.6135958408        0.4057708899        2.3438172404
 C          0.5261591524        0.0272371294        3.0434146381
 C          0.4460178992       -0.3533217486        4.3713151772
 C         -0.7742781177       -0.3593977536        5.0240129805
 C         -1.9126876984        0.0281936249        4.3389726453
 C         -1.8330545980        0.4084200323        3.0108217934
 H         -7.4575851230       -1.7606733020       -0.7341221609
 H         -5.9654757469       -2.6215600048       -0.3360818829
 H         -6.4615593303       -1.2216121891        0.6219034730
 H         -6.6295122804       -1.4070477909       -3.1258726094
 H         -5.0593054859       -0.6448056974       -3.3990231468
 H         -5.1442293522       -2.2796077503       -2.7315426119
 H         -8.2155126414        0.4015359815       -2.0714072234
 H         -8.7669263771        2.7989078770       -1.9191113576
 H         -7.1168397874        4.4133524873       -1.0908771197
 H         -4.8668638684        3.6632019182       -0.3936790864
 H         -2.7161115186        2.3747047231        0.2346708583
 H         -3.3803042309       -2.4244847002       -0.8273363985
 H         -1.7392312871       -3.2319263828        2.0433843948
 H         -2.2351579088       -5.6575326666        2.0557453911
 H         -1.9797831656       -6.9740941117       -0.0145401585
 H         -1.2403426387       -5.8721395325       -2.0929165465
 H         -0.7580686168       -3.4495248360       -2.1022816839
 H          1.2659881472       -3.1985400569       -0.5807432065
 H          3.4932685280       -2.2541358790       -0.8878150134
 H          3.4404660367        2.2725786728       -1.1757943568
 H          5.5745143008        3.3162551123       -1.6648425042
 H          2.0291001445        1.5777412968        0.2899116995
 H         -0.2152640743        2.7689623439        2.8168583379
 H          0.2060211088        5.1597222500        2.4795172673
 H          0.3916722092        6.0826781676        0.1981129885
 H          0.1454202935        4.5837614266       -1.7501817501
 H         -0.2786492002        2.1847482809       -1.4106680485
 H          1.4868721868        0.0288003577        2.5509452408
 H          1.3429804124       -0.6468527355        4.8969252075
 H         -0.8370090822       -0.6601401641        6.0592025035
 H         -2.8700110711        0.0359354199        4.8395394505
 H         -2.7298310087        0.7122609830        2.4923000665
  84
  -131.406174792200       0.187733143701033      !
 C         -6.4409939006       -1.7346702480       -0.0070986285
 C         -5.7862564817       -0.7945901960       -1.0236167574
 C         -5.8966753018       -1.3737630367       -2.4369524492
 C         -6.3857356514        0.5930814766       -0.9521380899
 C         -7.6848714708        0.9866888855       -1.1861569386
 C         -8.0112818366        2.3309825217       -1.0585498658
 C         -7.0497720561        3.2639656795       -0.7032619943
 C         -5.7405701638        2.8772993856       -0.4660568337
 C         -5.4125999346        1.5374318063       -0.5912851497
 C         -4.1498935139        0.8462763597       -0.4062615535
 C         -2.9059547136        1.3106195193       -0.0160643339
 C         -1.8476263030        0.4224659084        0.1073854088
 C         -2.0342647467       -0.9318010101       -0.1998052432
 C         -3.3005287362       -1.4036327940       -0.5636828501
 C         -4.3460518702       -0.5183016605       -0.6572134891
 N         -0.9491066158       -1.7991286170       -0.1691169612
 C         -1.1683238205       -3.1957974549       -0.3339530844
 C         -1.2336349568       -4.0023716788        0.7930370545
 C         -1.4479843144       -5.3627845889        0.6525273782
 C         -1.5975024920       -5.9164170215       -0.6078186165
 C         -1.5313512879       -5.1102667619       -1.7327334949
 C         -1.3161573366       -3.7502945506       -1.5999345330
 C          0.3354962129       -1.3079852512       -0.2312803185
 C          1.4050014179       -2.1212821248       -0.6212851247
 C          2.6767360438       -1.6105548187       -0.7332660100
 C          2.9316537921       -0.2603476972       -0.4786674161
 C          4.2630979414        0.3084973417       -0.6203466542
 C          4.4556836341        1.6461323861       -0.9323296147
 C          5.7173368057        2.2262061054       -1.0614169320
 C          6.8792835866        1.4963346592       -0.8824726641
 C          8.1485317907        2.0897351211       -1.0032312279
 N          9.1757353560        2.5889897618       -1.1188428645
 C          6.7451592070        0.1247573405       -0.5667794385
 N          7.7237452620       -0.7511754708       -0.3480061102
 S          7.0697419780       -2.1779246479       -0.0113016600
 N          5.5242975690       -1.7620171446       -0.1275645562
 C          5.4385067371       -0.4681933204       -0.4426226393
 C          1.8640384563        0.5381618339       -0.0581443881
 C          0.5875856003        0.0351335553        0.0840879127
 C         -0.5214301600        0.8667783688        0.6944230009
 C         -0.2779319536        2.3348393000        0.3898803082
 C         -0.0695394878        3.2878919364        1.3752886060
 C          0.1662167557        4.6099494403        1.0327430573
 C          0.1979479887        4.9939248136       -0.2955316135
 C         -0.0087570227        4.0469735776       -1.2862437444
 C         -0.2439475683        2.7292896542       -0.9451932963
 C         -0.5630392295        0.6031298394        2.2038921166
 C          0.5690647047        0.1872514077        2.8936392152
 C          0.5236831583       -0.0386149574        4.2585020748
 C         -0.6534869981        0.1489751180        4.9602835148
 C         -1.7844791976        0.5710242734        4.2839001666
 C         -1.7393876481        0.7958781002        2.9197699854
 H         -7.4917175539       -1.8781765379       -0.2478494580
 H         -5.9453999771       -2.7029894332       -0.0149925469
 H         -6.3679855208       -1.3148172088        0.9940638907
 H         -5.4010816474       -2.3406912658       -2.4879196085
 H         -6.9409578873       -1.5022794977       -2.7112545201
 H         -5.4288291541       -0.7030579462       -3.1546150017
 H         -8.4430990741        0.2686603579       -1.4636044400
 H         -9.0264652821        2.6529330369       -1.2384929251
 H         -7.3253900044        4.3044297496       -0.6105968764
 H         -4.9918890865        3.6054677009       -0.1902251097
 H         -2.7586595877        2.3568017296        0.2064031207
 H         -3.4468026394       -2.4531145260       -0.7669111470
 H         -1.1163035316       -3.5557788925        1.7694243091
 H         -1.4990475684       -5.9903099747        1.5294073971
 H         -1.7653492636       -6.9773209053       -0.7149166594
 H         -1.6464896950       -5.5411857281       -2.7160544887
 H         -1.2616884204       -3.1110656249       -2.4692886964
 H          1.2284999098       -3.1626995882       -0.8419777283
 H          3.4847983772       -2.2549817619       -1.0370817044
 H          3.5935520621        2.2712395021       -1.1063522829
 H          5.7935558755        3.2743021015       -1.3115179578
 H          2.0463890896        1.5651766536        0.2189080205
 H         -0.0875155714        3.0018831122        2.4159959540
 H          0.3275336214        5.3414775980        1.8109078427
 H          0.3838090733        6.0243900614       -0.5596911387
 H          0.0136672640        4.3376490596       -2.3263989130
 H         -0.4041145192        1.9912937892       -1.7182633068
 H          1.4996815127        0.0360630924        2.3684019921
 H          1.4156708648       -0.3652735787        4.7735090671
 H         -0.6890108734       -0.0305491547        6.0245662697
 H         -2.7093851569        0.7266446563        4.8195202522
 H         -2.6317010187        1.1257265675        2.4109049551
  84
  -131.404882674600       4.783269144375316E-002 !
 C         -6.2552662264       -2.1939541230        0.2079299328
 C         -5.8888616407       -0.9124416990       -0.5457056877
 C         -6.2658360869       -1.0356013620       -2.0253125850
 C         -6.5382482987        0.3014356689        0.0829648804
 C         -7.8778837194        0.5746219362        0.2511350174
 C         -8.2474473351        1.7646400155        0.8653266673
 C         -7.2884763111        2.6654031564        1.3013521644
 C         -5.9389049754        2.3996319319        1.1347755851
 C         -5.5671842187        1.2133682699        0.5241537234
 C         -4.2563216818        0.6662065133        0.2267592526
 C         -2.9865928545        1.1662709316        0.4439004411
 C         -1.8707881485        0.4289950408        0.0714443082
 C         -2.0408937476       -0.8363758195       -0.5024370380
 C         -3.3303277617       -1.3296492354       -0.7473956270
 C         -4.4226195583       -0.5821653213       -0.3878306657
 N         -0.9449082852       -1.6246641000       -0.8216570935
 C         -1.1669881268       -2.9280835812       -1.3514670341
 C         -1.4433147981       -3.9866097999       -0.4954671349
 C         -1.6610046616       -5.2506438681       -1.0142063725
 C         -1.6008998353       -5.4604744723       -2.3822247833
 C         -1.3239816124       -4.4045199116       -3.2347829990
 C         -1.1079743656       -3.1369903651       -2.7231468120
 C          0.3459905992       -1.2079744382       -0.5966732235
 C          1.4218481342       -2.0597956506       -0.8813467954
 C          2.7214776400       -1.6524414397       -0.7028139384
 C          3.0052818086       -0.3636245058       -0.2450130312
 C          4.3723455015        0.1127169060       -0.1036762041
 C          4.7001766238        1.4503478645       -0.2647343716
 C          6.0000941046        1.9387419122       -0.1365549107
 C          7.0654403578        1.1099291340        0.1682259158
 C          8.3737806596        1.6094175907        0.2965205047
 N          9.4359426486        2.0340708712        0.3971228760
 C          6.7914910799       -0.2659536033        0.3439490669
 N          7.6597146009       -1.2291408948        0.6459554385
 S          6.8669437982       -2.6213497332        0.7473311781
 N          5.3940257892       -2.0792695079        0.4121767880
 C          5.4475397580       -0.7632283837        0.1997040646
 C          1.9280050045        0.4687886720        0.0633969332
 C          0.6153518146        0.0701388672       -0.0889517455
 C         -0.4945015010        1.0377453273        0.2868319479
 C         -0.4377626423        2.2594273170       -0.6246505162
 C         -0.8988407601        3.5063161980       -0.2178406847
 C         -0.8859884750        4.5836721835       -1.0859933961
 C         -0.4204709469        4.4337567652       -2.3804016373
 C          0.0233811627        3.1927085412       -2.8016839511
 C          0.0093521253        2.1161221293       -1.9332276144
 C         -0.2916137461        1.3578674362        1.7625969624
 C          0.5147319600        2.4061073441        2.1909229034
 C          0.7299812679        2.6271032151        3.5400263606
 C          0.1497392911        1.8001473446        4.4853205572
 C         -0.6413762353        0.7436523419        4.0691188504
 C         -0.8540853649        0.5223517868        2.7207191209
 H         -7.3242771009       -2.3801018296        0.1386326766
 H         -5.7253962644       -3.0449858063       -0.2141501428
 H         -5.9864410929       -2.1015020794        1.2580557259
 H         -5.7344258417       -1.8675320294       -2.4821267838
 H         -7.3348936098       -1.2044505369       -2.1298765701
 H         -6.0046845784       -0.1223234563       -2.5557104461
 H         -8.6345597672       -0.1196267854       -0.0848942135
 H         -9.2944284923        1.9901505619        1.0054857703
 H         -7.5981500461        3.5842162601        1.7777802905
 H         -5.1927445043        3.1018543054        1.4760749968
 H         -2.8585272440        2.1287254866        0.9112308553
 H         -3.4552454513       -2.2949749790       -1.2127534213
 H         -1.4872228836       -3.8099132351        0.5691649821
 H         -1.8761334522       -6.0730031445       -0.3486315978
 H         -1.7698430631       -6.4478932022       -2.7841723522
 H         -1.2771279191       -4.5668339712       -4.3011275051
 H         -0.8921513250       -2.3052876564       -3.3775872679
 H          1.2258891028       -3.0532021611       -1.2539893882
 H          3.5292848777       -2.3263668574       -0.9347610793
 H          3.9217596602        2.1498627665       -0.5273274010
 H          6.1856709156        2.9926758720       -0.2837339767
 H          2.1227622659        1.4509669802        0.4611151473
 H         -1.2609378508        3.6506434213        0.7887660852
 H         -1.2417864004        5.5458447816       -0.7471005242
 H         -0.4074086464        5.2760364677       -3.0558817786
 H          0.3817803217        3.0600359105       -3.8122157829
 H          0.3566271833        1.1535472872       -2.2789646019
 H          0.9728075995        3.0700392291        1.4728522870
 H          1.3548105541        3.4514245577        3.8523195447
 H          0.3151291034        1.9763833648        5.5377015410
 H         -1.0943867184        0.0870019701        4.7974346870
 H         -1.4706178538       -0.3081979954        2.4094098130
