  90
       -145.15684038
 N        -10.9456933457       -1.8928596466       -0.4996128453
 C         -9.9391514149       -1.3640325309       -0.3585658928
 C         -8.7090163267       -0.6849969315       -0.1779839207
 N         -7.5765008946       -1.3739444633       -0.3577135269
 C         -6.4636106864       -0.6976007849       -0.1775019822
 C         -6.4647573455        0.6976285902        0.1839529138
 N         -7.5787490894        1.3722428965        0.3636491703
 C         -8.7101517819        0.6815719245        0.1831527102
 C         -9.9409176301        1.3598548058        0.3619136016
 N        -10.9473066537        1.8897855390        0.5006565489
 C         -5.0932033647        1.1380424934        0.2914320403
 C         -4.4675030087        2.3267467560        0.5911931156
 C         -3.0727238628        2.3710140591        0.5123204188
 C         -2.2841319660        1.2758865528        0.1848443484
 C         -0.8602753967        1.4912248655       -0.0883211385
 C         -0.3190164342        1.0684956455       -1.3029189935
 C          0.9975090722        1.3146447211       -1.6183763727
 C          1.8364479688        1.9708467368       -0.7126686064
 N          3.1777275957        2.1879887459       -1.0056698993
 C          3.8586204580        3.2747412518       -0.4290165726
 C          3.2653871137        4.5343318294       -0.3742423510
 C          3.9403059729        5.5942235257        0.2006708234
 C          5.2123334053        5.4161533436        0.7197749670
 C          5.8085948653        4.1671225499        0.6591701458
 C          5.1396344174        3.1000768944        0.0910223052
 C          3.8964977034        1.3193380226       -1.8396532204
 C          3.6595817240       -0.0539754272       -1.8250985019
 C          4.3882004511       -0.8961864375       -2.6423525855
 C          5.3676064257       -0.3880353150       -3.4792021845
 C          5.6080522522        0.9761244403       -3.4975894023
 C          4.8792952972        1.8267418776       -2.6892392518
 C          1.2916809165        2.4027201793        0.5012725652
 C         -0.0360475426        2.1824938398        0.7957500818
 C         -2.9011042934        0.0038403797        0.0002257904
 C         -2.2816921328       -1.2668793120       -0.1849137085
 C         -0.8568207368       -1.4795497128        0.0850192445
 C         -0.0346016669       -2.1726051624       -0.7996274952
 C          1.2933527378       -2.3935647445       -0.5069482733
 C          1.8405604413       -1.9593435913        0.7050775345
 N          3.1821159759       -2.1796557513        0.9952421155
 C          3.9068877078       -1.3126850534        1.8249891872
 C          4.8937720205       -1.8211225308        2.6693126833
 C          5.6283056094       -0.9715974616        3.4736039916
 C          5.3891011989        0.3927209019        3.4575253110
 C          4.4051407071        0.9020064820        2.6266506875
 C          3.6716245726        0.0611273163        1.8124870649
 C          3.8513031970       -3.2806273810        0.4314780320
 C          3.2463685564       -4.5353301867        0.3981195109
 C          3.9109341170       -5.6108340786       -0.1595057427
 C          5.1839140752       -5.4529173391       -0.6828055250
 C          5.7907906079       -4.2080659768       -0.6456449563
 C          5.1321101940       -3.1254751149       -0.0950246942
 C          1.0043340694       -1.2996701878        1.6105827245
 C         -0.3129198258       -1.0541424783        1.2974673540
 C         -3.0686172560       -2.3642630076       -0.5090409420
 C         -4.4636169192       -2.3232239842       -0.5853053545
 C         -5.0913077617       -1.1352905302       -0.2866259620
 C         -4.2989279848        0.0022766604        0.0014308453
 H         -5.0326727043        3.2118559313        0.8387182771
 H         -2.5792225155        3.3204738243        0.6647099690
 H         -0.9540765751        0.5706682946       -2.0209058617
 H          1.3863083594        1.0076069894       -2.5774817281
 H          2.2768431509        4.6742958410       -0.7868616987
 H          3.4727169000        6.5670211606        0.2366028016
 H          5.7362240703        6.2467587511        1.1675008695
 H          6.7983898134        4.0189961232        1.0647312918
 H          5.5997247828        2.1235403877        0.0518059638
 H          2.9005803621       -0.4570089100       -1.1737252627
 H          4.1968894461       -1.9591135638       -2.6163264983
 H          5.9373249123       -1.0496485536       -4.1136511626
 H          6.3642017997        1.3832878392       -4.1524317242
 H          5.0650884138        2.8905674425       -2.7122035758
 H          1.9202100637        2.9104639070        1.2176542645
 H         -0.4317271649        2.5152581788        1.7442286713
 H         -0.4326784966       -2.5075189700       -1.7463552709
 H          1.9202641479       -2.9044293949       -1.2225801835
 H          5.0784061571       -2.8851463473        2.6920914659
 H          6.3877792271       -1.3803560542        4.1235813826
 H          5.9629957257        1.0536671519        4.0888447206
 H          4.2144101236        1.9650745364        2.6026743363
 H          2.9098558070        0.4656933845        1.1652689276
 H          2.2572605315       -4.6591529016        0.8145430890
 H          3.4348368223       -6.5799218690       -0.1781209754
 H          5.7003563608       -6.2959519009       -1.1157905469
 H          6.7811807024       -4.0760251881       -1.0552971426
 H          5.6005777823       -2.1524364828       -0.0730322835
 H          1.3955846503       -0.9903079585        2.5679383247
 H         -0.9462057050       -0.5543504320        2.0156211097
 H         -2.5733415763       -3.3129289267       -0.6607271193
 H         -5.0271360814       -3.2101442541       -0.8301100272
  90
       -145.15659239
 N        -10.9750404615       -1.2210196072        1.5183554037
 C         -9.9661151616       -0.8800406177        1.0955624973
 C         -8.7343263188       -0.4413022089        0.5500330748
 N         -7.6031544187       -0.8888883258        1.1066618774
 C         -6.4892118924       -0.4509177231        0.5629806762
 C         -6.4875051563        0.4568665674       -0.5548867760
 N         -7.5996609809        0.8932596669       -1.1034333443
 C         -8.7325951274        0.4437669371       -0.5520004089
 C         -9.9625789791        0.8797349599       -1.1037673356
 N        -10.9702583198        1.2189373845       -1.5310158785
 C         -5.1144223601        0.7450486919       -0.9004013134
 C         -4.4915616592        1.5229950011       -1.8482065621
 C         -3.0957187034        1.5878920679       -1.8240021330
 C         -2.3042349467        0.8944481663       -0.9181993340
 C         -0.8654236206        1.1845679189       -0.9028585239
 C         -0.1111066986        1.1321927574       -2.0727419626
 C          1.2319891812        1.4371529844       -2.0635980036
 C          1.8642357354        1.8307541941       -0.8819230002
 N          3.2243852534        2.1316165276       -0.8753961727
 C          3.7346674853        3.1395383917       -0.0464620250
 C          2.9965997151        4.2946929387        0.2087893699
 C          3.5119697643        5.2828717043        1.0251471697
 C          4.7692256120        5.1429293037        1.5896807005
 C          5.5100801893        4.0013638184        1.3309769125
 C          5.0002306948        3.0035239436        0.5230774219
 C          4.0923225660        1.4516806277       -1.7439031434
 C          3.9336876411        0.0853133063       -1.9667704295
 C          4.7767298343       -0.5814617501       -2.8343407757
 C          5.7990051598        0.0976377477       -3.4766277840
 C          5.9676304337        1.4538785369       -3.2500818441
 C          5.1195781058        2.1318096792       -2.3956748185
 C          1.1007302915        1.9162074701        0.2856204405
 C         -0.2381357069        1.5934472667        0.2727607537
 C         -2.9201726475        0.0016247245        0.0081656707
 C         -2.3072258804       -0.8928276329        0.9350027563
 C         -0.8693305742       -1.1869029538        0.9179531610
 C         -0.2456461449       -1.5943028092       -0.2601598110
 C          1.0928925856       -1.9178544609       -0.2774030710
 C          1.8593128463       -1.8355641371        0.8883572861
 N          3.2196495687       -2.1366415015        0.8768126098
 C          4.0916236169       -1.4521925267        1.7372974245
 C          5.1291762768       -2.1259951806        2.3792873556
 C          5.9813214088       -1.4427162871        3.2253456954
 C          5.8066531290       -0.0875470055        3.4536862015
 C          4.7739046888        0.5851677130        2.8215408797
 C          3.9268909741       -0.0867839933        1.9619692974
 C          3.7248131628       -3.1447040299        0.0449568110
 C          2.9840045915       -4.2992172254       -0.2054755128
 C          3.4924015579       -5.2873019573       -1.0262492011
 C          4.7455164320       -5.1479821711       -1.6000903042
 C          5.4892646371       -4.0072881755       -1.3459525647
 C          4.9863142298       -3.0094880638       -0.5336433375
 C          1.2304434425       -1.4453259306        2.0728726909
 C         -0.1123399372       -1.1387301106        2.0862354154
 C         -3.1010794524       -1.5843958674        1.8401022682
 C         -4.4969025082       -1.5172809970        1.8619951576
 C         -5.1171032019       -0.7388239081        0.9128317877
 C         -4.3198607303        0.0028410578        0.0071449090
 H         -5.0572353089        2.0930455426       -2.5686241694
 H         -2.6007684069        2.2481769421       -2.5220586110
 H         -0.5817629357        0.8286220107       -2.9966324450
 H          1.8028860028        1.3836586604       -2.9785843364
 H          2.0223526777        4.4150472481       -0.2420917785
 H          2.9307654939        6.1735185354        1.2131230340
 H          5.1694733950        5.9191350558        2.2238393059
 H          6.4906854772        3.8812781791        1.7675135432
 H          5.5760913756        2.1100156379        0.3321500801
 H          3.1435096341       -0.4444674625       -1.4572648965
 H          4.6397927157       -1.6398319300       -3.0004821831
 H          6.4590465591       -0.4264366693       -4.1508669218
 H          6.7587427312        1.9918410959       -3.7511610254
 H          5.2441422806        3.1921494728       -2.2316007006
 H          1.5634483862        2.2412161073        1.2060390026
 H         -0.8143955602        1.6742018598        1.1826376035
 H         -0.8242317242       -1.6714518252       -1.1688625915
 H          1.5533237849       -2.2400980059       -1.1999335440
 H          5.2588107752       -3.1855480062        2.2141119588
 H          6.7807137222       -1.9757455677        3.7184955662
 H          6.4700577627        0.4406449822        4.1213664985
 H          4.6320203354        1.6426649072        2.9890804079
 H          3.1289071918        0.4382131479        1.4598139067
 H          2.0129069920       -4.4188727477        0.2523424138
 H          2.9090284402       -6.1773058410       -1.2105090515
 H          5.1402387062       -5.9239050171       -2.2380420845
 H          6.4665537041       -3.8875646375       -1.7899919184
 H          5.5641186627       -2.1163154955       -0.3470744156
 H          1.8039432837       -1.3948861293        2.9864239976
 H         -0.5802132167       -0.8363025129        3.0119116643
 H         -2.6083642061       -2.2457602610        2.5387175614
 H         -5.0646279394       -2.0866761656        2.5813252677
