  90
  -145.156840380000       0.234770741837247      !
 N        -10.9456933457       -1.8928596466       -0.4996128453
 C         -9.9391514149       -1.3640325309       -0.3585658928
 C         -8.7090163267       -0.6849969315       -0.1779839207
 N         -7.5765008946       -1.3739444633       -0.3577135269
 C         -6.4636106864       -0.6976007849       -0.1775019822
 C         -6.4647573455        0.6976285902        0.1839529138
 N         -7.5787490894        1.3722428965        0.3636491703
 C         -8.7101517819        0.6815719245        0.1831527102
 C         -9.9409176301        1.3598548058        0.3619136016
 N        -10.9473066537        1.8897855390        0.5006565489
 C         -5.0932033647        1.1380424934        0.2914320403
 C         -4.4675030087        2.3267467560        0.5911931156
 C         -3.0727238628        2.3710140591        0.5123204188
 C         -2.2841319660        1.2758865528        0.1848443484
 C         -0.8602753967        1.4912248655       -0.0883211385
 C         -0.3190164342        1.0684956455       -1.3029189935
 C          0.9975090722        1.3146447211       -1.6183763727
 C          1.8364479688        1.9708467368       -0.7126686064
 N          3.1777275957        2.1879887459       -1.0056698993
 C          3.8586204580        3.2747412518       -0.4290165726
 C          3.2653871137        4.5343318294       -0.3742423510
 C          3.9403059729        5.5942235257        0.2006708234
 C          5.2123334053        5.4161533436        0.7197749670
 C          5.8085948653        4.1671225499        0.6591701458
 C          5.1396344174        3.1000768944        0.0910223052
 C          3.8964977034        1.3193380226       -1.8396532204
 C          3.6595817240       -0.0539754272       -1.8250985019
 C          4.3882004511       -0.8961864375       -2.6423525855
 C          5.3676064257       -0.3880353150       -3.4792021845
 C          5.6080522522        0.9761244403       -3.4975894023
 C          4.8792952972        1.8267418776       -2.6892392518
 C          1.2916809165        2.4027201793        0.5012725652
 C         -0.0360475426        2.1824938398        0.7957500818
 C         -2.9011042934        0.0038403797        0.0002257904
 C         -2.2816921328       -1.2668793120       -0.1849137085
 C         -0.8568207368       -1.4795497128        0.0850192445
 C         -0.0346016669       -2.1726051624       -0.7996274952
 C          1.2933527378       -2.3935647445       -0.5069482733
 C          1.8405604413       -1.9593435913        0.7050775345
 N          3.1821159759       -2.1796557513        0.9952421155
 C          3.9068877078       -1.3126850534        1.8249891872
 C          4.8937720205       -1.8211225308        2.6693126833
 C          5.6283056094       -0.9715974616        3.4736039916
 C          5.3891011989        0.3927209019        3.4575253110
 C          4.4051407071        0.9020064820        2.6266506875
 C          3.6716245726        0.0611273163        1.8124870649
 C          3.8513031970       -3.2806273810        0.4314780320
 C          3.2463685564       -4.5353301867        0.3981195109
 C          3.9109341170       -5.6108340786       -0.1595057427
 C          5.1839140752       -5.4529173391       -0.6828055250
 C          5.7907906079       -4.2080659768       -0.6456449563
 C          5.1321101940       -3.1254751149       -0.0950246942
 C          1.0043340694       -1.2996701878        1.6105827245
 C         -0.3129198258       -1.0541424783        1.2974673540
 C         -3.0686172560       -2.3642630076       -0.5090409420
 C         -4.4636169192       -2.3232239842       -0.5853053545
 C         -5.0913077617       -1.1352905302       -0.2866259620
 C         -4.2989279848        0.0022766604        0.0014308453
 H         -5.0326727043        3.2118559313        0.8387182771
 H         -2.5792225155        3.3204738243        0.6647099690
 H         -0.9540765751        0.5706682946       -2.0209058617
 H          1.3863083594        1.0076069894       -2.5774817281
 H          2.2768431509        4.6742958410       -0.7868616987
 H          3.4727169000        6.5670211606        0.2366028016
 H          5.7362240703        6.2467587511        1.1675008695
 H          6.7983898134        4.0189961232        1.0647312918
 H          5.5997247828        2.1235403877        0.0518059638
 H          2.9005803621       -0.4570089100       -1.1737252627
 H          4.1968894461       -1.9591135638       -2.6163264983
 H          5.9373249123       -1.0496485536       -4.1136511626
 H          6.3642017997        1.3832878392       -4.1524317242
 H          5.0650884138        2.8905674425       -2.7122035758
 H          1.9202100637        2.9104639070        1.2176542645
 H         -0.4317271649        2.5152581788        1.7442286713
 H         -0.4326784966       -2.5075189700       -1.7463552709
 H          1.9202641479       -2.9044293949       -1.2225801835
 H          5.0784061571       -2.8851463473        2.6920914659
 H          6.3877792271       -1.3803560542        4.1235813826
 H          5.9629957257        1.0536671519        4.0888447206
 H          4.2144101236        1.9650745364        2.6026743363
 H          2.9098558070        0.4656933845        1.1652689276
 H          2.2572605315       -4.6591529016        0.8145430890
 H          3.4348368223       -6.5799218690       -0.1781209754
 H          5.7003563608       -6.2959519009       -1.1157905469
 H          6.7811807024       -4.0760251881       -1.0552971426
 H          5.6005777823       -2.1524364828       -0.0730322835
 H          1.3955846503       -0.9903079585        2.5679383247
 H         -0.9462057050       -0.5543504320        2.0156211097
 H         -2.5733415763       -3.3129289267       -0.6607271193
 H         -5.0271360814       -3.2101442541       -0.8301100272
  90
  -145.156823700000       0.230663233079792      !
 N        -10.9579158414       -1.8524615412        0.6043941433
 C         -9.9488723407       -1.3364535559        0.4348972893
 C         -8.7177134283       -0.6704598273        0.2165472925
 N         -7.5858277207       -1.3509620669        0.4294376596
 C         -6.4723103784       -0.6864846291        0.2129464847
 C         -6.4717680193        0.6883575861       -0.2192996507
 N         -7.5851838525        1.3545196292       -0.4318839466
 C         -8.7172531475        0.6757366601       -0.2148281878
 C         -9.9480930601        1.3443017358       -0.4271447338
 N        -10.9567917629        1.8623725628       -0.5912096568
 C         -5.0996088145        1.1204164967       -0.3509378163
 C         -4.4723066666        2.2901097364       -0.7148768792
 C         -3.0771101670        2.3353227798       -0.6430338172
 C         -2.2894391199        1.2581594702       -0.2588046852
 C         -0.8635889610        1.4858265006       -0.0061564620
 C         -0.0427922592        2.1192406717       -0.9356966945
 C          1.2866515643        2.3555544105       -0.6625185156
 C          1.8377096332        2.0006707679        0.5736384888
 N          3.1804939777        2.2341833159        0.8456669029
 C          3.8660811583        3.2708518282        0.1876181906
 C          5.1452152104        3.0487592820       -0.3192000047
 C          5.8209152746        4.0651955736       -0.9663710421
 C          5.2332838650        5.3104232270       -1.1199865127
 C          3.9635242422        5.5358973271       -0.6141555240
 C          3.2819244679        4.5269643119        0.0395693796
 C          3.9006930146        1.4299623413        1.7413037841
 C          3.6681932510        0.0588111047        1.8282599591
 C          4.4009594780       -0.7185536018        2.7042763987
 C          5.3806337975       -0.1474784197        3.4990441592
 C          5.6167328817        1.2151080437        3.4166329778
 C          4.8832316705        2.0013856288        2.5497390501
 C          1.0022675624        1.4033372554        1.5223538261
 C         -0.3161342000        1.1390520902        1.2293708103
 C         -2.9086032701       -0.0004346068       -0.0026716110
 C         -2.2913311975       -1.2598416119        0.2520037847
 C         -0.8645405414       -1.4875169898        0.0020674972
 C         -0.3176758098       -1.1483134878       -1.2357178982
 C          1.0015195018       -1.4116631019       -1.5256017440
 C          1.8371033550       -1.9993404649       -0.5711559942
 N          3.1813189848       -2.2319286115       -0.8400896509
 C          3.9021686337       -1.4233664160       -1.7306650018
 C          4.8937458842       -1.9861395704       -2.5339695057
 C          5.6250334783       -1.1930087402       -3.3966022295
 C          5.3775150633        0.1673911965       -3.4806329877
 C          4.3881350976        0.7297172034       -2.6917190896
 C          3.6581601693       -0.0541129728       -1.8193936691
 C          3.8598490215       -3.2770854566       -0.1888217385
 C          5.1414707071       -3.0698417186        0.3177438194
 C          5.8094932032       -4.0974542111        0.9554860658
 C          5.2113235698       -5.3385205407        1.1009307355
 C          3.9378651217       -5.5485722991        0.5974179936
 C          3.2642963357       -4.5288621367       -0.0473574893
 C          1.2867718258       -2.3463148677        0.6671488537
 C         -0.0438064949       -2.1117196568        0.9373872189
 C         -3.0796398361       -2.3382860248        0.6310751014
 C         -4.4748245145       -2.2922171425        0.7023154029
 C         -5.1003973690       -1.1200809229        0.3432449323
 C         -4.3065572006        0.0001020715       -0.0029983277
 H         -5.0362554643        3.1620000193       -1.0078893626
 H         -2.5822336510        3.2737913349       -0.8494513845
 H         -0.4434297722        2.3938217833       -1.9006202865
 H          1.9113656050        2.8164077564       -1.4130845055
 H          5.5984420479        2.0746676001       -0.2075545903
 H          6.8089594870        3.8798761878       -1.3607547585
 H          5.7623816222        6.1012806471       -1.6293826902
 H          3.5026831356        6.5065791963       -0.7221214778
 H          2.2954533256        4.7053224475        0.4422464083
 H          2.9102080578       -0.3937312359        1.2092150913
 H          4.2133938326       -1.7811591793        2.7569022434
 H          5.9540907575       -0.7592514152        4.1785357349
 H          6.3728333822        1.6720123771        4.0377800813
 H          5.0648045366        3.0647806997        2.4941178081
 H          1.3946980212        1.1565040900        2.4971920619
 H         -0.9474302005        0.6873978061        1.9804447051
 H         -0.9500793526       -0.7035457917       -1.9899791954
 H          1.3950822133       -1.1718727834       -2.5017672146
 H          5.0849658940       -3.0477490599       -2.4780727976
 H          6.3891331398       -1.6430427334       -4.0129920319
 H          5.9495975433        0.7840261550       -4.1568376004
 H          4.1907533787        1.7903998079       -2.7459076967
 H          2.8927414832        0.3915687260       -1.2044391202
 H          5.6033786074       -2.0990692674        0.2129919722
 H          6.8000664589       -3.9241415116        1.3489772723
 H          5.7347656550       -6.1383639584        1.6020562591
 H          3.4685949027       -6.5157961356        0.6992171764
 H          2.2755407547       -4.6948817919       -0.4494770765
 H          1.9123275496       -2.7998919518        1.4215089389
 H         -0.4447450632       -2.3794637929        1.9040964265
 H         -2.5849621472       -3.2777283564        0.8337590436
 H         -5.0399692769       -3.1649295466        0.9906939367
  90
  -145.156592390000       0.180582499186630      !
 N        -10.9750404615       -1.2210196072        1.5183554037
 C         -9.9661151616       -0.8800406177        1.0955624973
 C         -8.7343263188       -0.4413022089        0.5500330748
 N         -7.6031544187       -0.8888883258        1.1066618774
 C         -6.4892118924       -0.4509177231        0.5629806762
 C         -6.4875051563        0.4568665674       -0.5548867760
 N         -7.5996609809        0.8932596669       -1.1034333443
 C         -8.7325951274        0.4437669371       -0.5520004089
 C         -9.9625789791        0.8797349599       -1.1037673356
 N        -10.9702583198        1.2189373845       -1.5310158785
 C         -5.1144223601        0.7450486919       -0.9004013134
 C         -4.4915616592        1.5229950011       -1.8482065621
 C         -3.0957187034        1.5878920679       -1.8240021330
 C         -2.3042349467        0.8944481663       -0.9181993340
 C         -0.8654236206        1.1845679189       -0.9028585239
 C         -0.1111066986        1.1321927574       -2.0727419626
 C          1.2319891812        1.4371529844       -2.0635980036
 C          1.8642357354        1.8307541941       -0.8819230002
 N          3.2243852534        2.1316165276       -0.8753961727
 C          3.7346674853        3.1395383917       -0.0464620250
 C          2.9965997151        4.2946929387        0.2087893699
 C          3.5119697643        5.2828717043        1.0251471697
 C          4.7692256120        5.1429293037        1.5896807005
 C          5.5100801893        4.0013638184        1.3309769125
 C          5.0002306948        3.0035239436        0.5230774219
 C          4.0923225660        1.4516806277       -1.7439031434
 C          3.9336876411        0.0853133063       -1.9667704295
 C          4.7767298343       -0.5814617501       -2.8343407757
 C          5.7990051598        0.0976377477       -3.4766277840
 C          5.9676304337        1.4538785369       -3.2500818441
 C          5.1195781058        2.1318096792       -2.3956748185
 C          1.1007302915        1.9162074701        0.2856204405
 C         -0.2381357069        1.5934472667        0.2727607537
 C         -2.9201726475        0.0016247245        0.0081656707
 C         -2.3072258804       -0.8928276329        0.9350027563
 C         -0.8693305742       -1.1869029538        0.9179531610
 C         -0.2456461449       -1.5943028092       -0.2601598110
 C          1.0928925856       -1.9178544609       -0.2774030710
 C          1.8593128463       -1.8355641371        0.8883572861
 N          3.2196495687       -2.1366415015        0.8768126098
 C          4.0916236169       -1.4521925267        1.7372974245
 C          5.1291762768       -2.1259951806        2.3792873556
 C          5.9813214088       -1.4427162871        3.2253456954
 C          5.8066531290       -0.0875470055        3.4536862015
 C          4.7739046888        0.5851677130        2.8215408797
 C          3.9268909741       -0.0867839933        1.9619692974
 C          3.7248131628       -3.1447040299        0.0449568110
 C          2.9840045915       -4.2992172254       -0.2054755128
 C          3.4924015579       -5.2873019573       -1.0262492011
 C          4.7455164320       -5.1479821711       -1.6000903042
 C          5.4892646371       -4.0072881755       -1.3459525647
 C          4.9863142298       -3.0094880638       -0.5336433375
 C          1.2304434425       -1.4453259306        2.0728726909
 C         -0.1123399372       -1.1387301106        2.0862354154
 C         -3.1010794524       -1.5843958674        1.8401022682
 C         -4.4969025082       -1.5172809970        1.8619951576
 C         -5.1171032019       -0.7388239081        0.9128317877
 C         -4.3198607303        0.0028410578        0.0071449090
 H         -5.0572353089        2.0930455426       -2.5686241694
 H         -2.6007684069        2.2481769421       -2.5220586110
 H         -0.5817629357        0.8286220107       -2.9966324450
 H          1.8028860028        1.3836586604       -2.9785843364
 H          2.0223526777        4.4150472481       -0.2420917785
 H          2.9307654939        6.1735185354        1.2131230340
 H          5.1694733950        5.9191350558        2.2238393059
 H          6.4906854772        3.8812781791        1.7675135432
 H          5.5760913756        2.1100156379        0.3321500801
 H          3.1435096341       -0.4444674625       -1.4572648965
 H          4.6397927157       -1.6398319300       -3.0004821831
 H          6.4590465591       -0.4264366693       -4.1508669218
 H          6.7587427312        1.9918410959       -3.7511610254
 H          5.2441422806        3.1921494728       -2.2316007006
 H          1.5634483862        2.2412161073        1.2060390026
 H         -0.8143955602        1.6742018598        1.1826376035
 H         -0.8242317242       -1.6714518252       -1.1688625915
 H          1.5533237849       -2.2400980059       -1.1999335440
 H          5.2588107752       -3.1855480062        2.2141119588
 H          6.7807137222       -1.9757455677        3.7184955662
 H          6.4700577627        0.4406449822        4.1213664985
 H          4.6320203354        1.6426649072        2.9890804079
 H          3.1289071918        0.4382131479        1.4598139067
 H          2.0129069920       -4.4188727477        0.2523424138
 H          2.9090284402       -6.1773058410       -1.2105090515
 H          5.1402387062       -5.9239050171       -2.2380420845
 H          6.4665537041       -3.8875646375       -1.7899919184
 H          5.5641186627       -2.1163154955       -0.3470744156
 H          1.8039432837       -1.3948861293        2.9864239976
 H         -0.5802132167       -0.8363025129        3.0119116643
 H         -2.6083642061       -2.2457602610        2.5387175614
 H         -5.0646279394       -2.0866761656        2.5813252677
  90
  -145.156573410000       0.176991762948166      !
 N        -10.9664587565       -1.4545238136       -1.3000507363
 C         -9.9587208203       -1.0492834065       -0.9354939209
 C         -8.7277592213       -0.5260016795       -0.4680224101
 N         -7.5957809179       -1.0680320441       -0.9312061025
 C         -6.4826354606       -0.5437944456       -0.4681327546
 C         -6.4825956338        0.5479882722        0.4708223227
 N         -7.5955629191        1.0761848438        0.9296581940
 C         -8.7276802954        0.5387409341        0.4614820274
 C         -9.9581353397        1.0679240106        0.9234335075
 N        -10.9648514019        1.4801241857        1.2829062381
 C         -5.1100591641        0.8921125647        0.7632589077
 C         -4.4885027136        1.8276355347        1.5570236505
 C         -3.0927397265        1.8895891126        1.5212040221
 C         -2.3003880086        1.0461658395        0.7540602045
 C         -0.8631885198        1.3341995205        0.6783211875
 C         -0.2450893341        1.5192919424       -0.5572614943
 C          1.0921749726        1.8382866120       -0.6391017550
 C          1.8625102288        1.9752001728        0.5188104510
 N          3.2217431307        2.2747844183        0.4455129769
 C          3.7135038612        3.1212276031       -0.5572051918
 C          2.9608985415        4.2073608388       -1.0027274491
 C          3.4534016662        5.0360308205       -1.9922682583
 C          4.7026082470        4.8049879376       -2.5445458794
 C          5.4583384014        3.7335041699       -2.0976119187
 C          4.9711313728        2.8936151902       -1.1148756965
 C          4.1020497792        1.7548170001        1.4060304666
 C          5.1531429981        2.5265921072        1.8983682214
 C          6.0139568727        2.0044310574        2.8444903060
 C          5.8338285801        0.7174069102        3.3239125400
 C          4.7865639889       -0.0508636245        2.8427888309
 C          3.9321722670        0.4565371555        1.8835108836
 C          1.2394374300        1.8075170766        1.7574928378
 C         -0.1020078146        1.5038300625        1.8324964152
 C         -2.9147683880       -0.0007077458        0.0049503092
 C         -2.2999684290       -1.0470420681       -0.7447049839
 C         -0.8628080033       -1.3348567442       -0.6693300863
 C         -0.1025419116       -1.5061515500       -1.8238915655
 C          1.2390066070       -1.8092586597       -1.7497161437
 C          1.8637497208       -1.9749871317       -0.5115291669
 N          3.2230031437       -2.2733696664       -0.4400071067
 C          4.0997273039       -1.7610860999       -1.4081475902
 C          3.9343669124       -0.4629584007       -1.8876907827
 C          4.7842765509        0.0360877233       -2.8553804611
 C          5.8218775880       -0.7409322500       -3.3436218106
 C          5.9980316795       -2.0276029108       -2.8614998139
 C          5.1421325202       -2.5410156913       -1.9062240331
 C          3.7192433480       -3.1186279789        0.5615372265
 C          2.9689764464       -4.2037292936        1.0132822617
 C          3.4681644955       -5.0322242240        1.9996670178
 C          4.7213991024       -4.8016189464        2.5429073887
 C          5.4744482908       -3.7306204579        2.0902587901
 C          4.9808654448       -2.8912686873        1.1102944036
 C          1.0942493710       -1.8368076090        0.6469251563
 C         -0.2431414613       -1.5180869180        0.5658452181
 C         -3.0922855137       -1.8889784098       -1.5135839570
 C         -4.4879988628       -1.8259673513       -1.5509706099
 C         -5.1100394430       -0.8912382763       -0.7566674403
 C         -4.3143146256       -0.0003525660        0.0043364575
 H         -5.0552333579        2.5169957370        2.1632627398
 H         -2.5989978838        2.6661374262        2.0881236686
 H         -0.8270191489        1.4257110381       -1.4622863782
 H          1.5488432368        1.9862329718       -1.6068440520
 H          1.9926485405        4.4003778824       -0.5643084700
 H          2.8604288568        5.8742756597       -2.3271973766
 H          5.0849238357        5.4565758833       -3.3153315045
 H          6.4329306601        3.5432183834       -2.5226729098
 H          5.5585607625        2.0525251769       -0.7771544938
 H          5.2870351803        3.5361685706        1.5385841671
 H          6.8247688183        2.6122191307        3.2179719091
 H          6.5037179995        0.3163846854        4.0691078015
 H          4.6385895657       -1.0564235166        3.2079943402
 H          3.1239242438       -0.1463057951        1.4988446044
 H          1.8161437401        1.9283465172        2.6623791226
 H         -0.5656890178        1.3758927462        2.7998993019
 H         -0.5669084324       -1.3798894864       -2.7911711599
 H          1.8146490400       -1.9315288626       -2.6550847159
 H          3.1328752203        0.1460288465       -1.4984010357
 H          4.6404639107        1.0418855744       -3.2216650631
 H          6.4878083990       -0.3467943119       -4.0959296636
 H          6.8015497041       -2.6419633276       -3.2400123123
 H          5.2725170635       -3.5501948739       -1.5439650358
 H          1.9976825918       -4.3966034607        0.5816215903
 H          2.8774105898       -5.8702997761        2.3388174389
 H          5.1090988507       -5.4533898507        3.3108471221
 H          6.4519469766       -3.5405443217        2.5085707500
 H          5.5663375582       -2.0508982002        0.7676736648
 H          1.5515839032       -1.9836041522        1.6145289806
 H         -0.8241563374       -1.4234872652        1.4713548678
 H         -2.5986396132       -2.6650471386       -2.0812245905
 H         -5.0543176231       -2.5138469865       -2.1593068316
  90
  -145.156573410000       0.176991762948166      !
 N        -10.9739498583       -1.4579560728       -1.2735284808
 C         -9.9645635187       -1.0493400295       -0.9167504123
 C         -8.7318728859       -0.5223935999       -0.4583576845
 N         -7.6017804374       -1.0786853461       -0.9090075963
 C         -6.4868828116       -0.5508529314       -0.4544743456
 C         -6.4829891163        0.5582940573        0.4638502552
 N         -7.5941640534        1.1008155351        0.9102743767
 C         -8.7281196649        0.5601968000        0.4504215936
 C         -9.9567370809        1.1049248312        0.8989895615
 N        -10.9634777428        1.5274277414        1.2464650228
 C         -5.1093318942        0.9015344616        0.7516099533
 C         -4.4846721454        1.8496892532        1.5277414943
 C         -3.0887469736        1.9057869651        1.4913039972
 C         -2.2991608581        1.0454450043        0.7401901688
 C         -0.8614303690        1.3286799273        0.6584549921
 C         -0.2435630728        1.4870279193       -0.5809937865
 C          1.0937559063        1.8030653391       -0.6698951940
 C          1.8647439441        1.9643961577        0.4846042562
 N          3.2225391512        2.2659881581        0.4023539741
 C          3.7089235668        3.0919475180       -0.6204175408
 C          4.9632633007        2.8514609793       -1.1797144998
 C          5.4467511313        3.6719190419       -2.1805434731
 C          4.6904499551        4.7363086481       -2.6431968423
 C          3.4441835455        4.9796346036       -2.0895635185
 C          2.9551728228        4.1701011480       -1.0826472298
 C          4.1072622647        1.7843643212        1.3784833224
 C          3.9528552830        0.4989246428        1.8943418621
 C          4.8140239803        0.0307622970        2.8676365150
 C          5.8515500487        0.8259392806        3.3257322212
 C          6.0160661588        2.1004269065        2.8083197954
 C          5.1491527739        2.5832024283        1.8471312617
 C          1.2423296544        1.8221823836        1.7267415888
 C         -0.0994037721        1.5212901606        1.8084443097
 C         -2.9170331909       -0.0133023284        0.0107336142
 C         -2.3058373251       -1.0750807600       -0.7201583470
 C         -0.8686409334       -1.3623495034       -0.6427848084
 C         -0.1107890470       -1.5533479730       -1.7958375735
 C          1.2321140890       -1.8501799254       -1.7196852356
 C          1.8612367717       -1.9886572641       -0.4803232975
 N          3.2214186773       -2.2808294762       -0.4062992143
 C          4.0945062558       -1.7938262280       -1.3909512853
 C          5.1341316858       -2.5875964689       -1.8724288671
 C          5.9872291670       -2.0998462851       -2.8435704005
 C          5.8112621206       -0.8254275010       -3.3572187208
 C          4.7769395004       -0.0344876161       -2.8847034574
 C          3.9294142857       -0.5079287141       -1.9021507881
 C          3.7260152194       -3.0909446229        0.6199731513
 C          4.9861779950       -2.8353664282        1.1594012703
 C          5.4875695656       -3.6379599050        2.1658067874
 C          4.7436656126       -4.6995624570        2.6541612008
 C          3.4924967858       -4.9590926443        2.1192099572
 C          2.9857752352       -4.1678295340        1.1065178454
 C          1.0941642955       -1.8305408225        0.6772568840
 C         -0.2448560234       -1.5197425153        0.5938413956
 C         -3.1012160784       -1.9287535949       -1.4726318518
 C         -4.4967609583       -1.8615554429       -1.5111154551
 C         -5.1154678443       -0.9097626965       -0.7347664272
 C         -4.3165978880       -0.0081874548        0.0101610346
 H         -5.0490398842        2.5527049328        2.1203645289
 H         -2.5924343833        2.6914287134        2.0432440915
 H         -0.8259727278        1.3755232691       -1.4836614817
 H          1.5497010436        1.9312675832       -1.6407699306
 H          5.5509232359        2.0162547761       -0.8282396301
 H          6.4186705261        3.4721069229       -2.6072239121
 H          5.0700718297        5.3731054704       -3.4275603006
 H          2.8510375012        5.8125704876       -2.4370260982
 H          1.9892827928        4.3720729698       -0.6430679890
 H          3.1520498852       -0.1251157969        1.5281010671
 H          4.6789528390       -0.9655651268        3.2620523064
 H          6.5262599717        0.4556337234        4.0824113487
 H          6.8189032723        2.7292877172        3.1637783048
 H          5.2706667750        3.5830372324        1.4569027494
 H          1.8193802576        1.9617851464        2.6287068596
 H         -0.5626504961        1.4135524946        2.7785102408
 H         -0.5781107666       -1.4470703695       -2.7640999213
 H          1.8053153945       -1.9880534359       -2.6243486691
 H          5.2648813317       -3.5871351787       -1.4844747608
 H          6.7887101727       -2.7245622423       -3.2092233274
 H          6.4752432308       -0.4514568508       -4.1215290439
 H          4.6337569660        0.9622500023       -3.2752365883
 H          3.1300448074        0.1115280856       -1.5253610832
 H          5.5640977342       -2.0015277015        0.7891004400
 H          6.4636032088       -3.4257853818        2.5768768220
 H          5.1367475483       -5.3217393447        3.4436147515
 H          2.9090881407       -5.7905057334        2.4863045410
 H          2.0160366769       -4.3830155273        0.6820488687
 H          1.5547743463       -1.9547902511        1.6464150051
 H         -0.8236511078       -1.4101489623        1.4990784708
 H         -2.6103413276       -2.7165592784       -2.0263293185
 H         -5.0655358386       -2.5580967430       -2.1071700677
