82
 energy: -118.346855593635 gnorm: 0.000078921252 xtb: 6.7.1 (edcfbbe)
C          -10.02610566013069       -0.06277405549539        1.22778249314455
C           -9.13659204879612        0.01914739410493       -0.02689524856937
C          -10.00774947598521        0.11160537746846       -1.29368200041236
C           -8.28079027457949        1.26583614273550        0.05639172773720
C           -8.89521065726451        2.50894335409231        0.12372812253156
C           -8.17074578777995        3.68594175634153        0.14282828679167
C           -6.78991127266254        3.63094863153731        0.05681320359263
C           -6.15432573329204        2.41111252472783       -0.00918729344974
C           -6.88071635422311        1.21328290259048        0.02742503669780
N           -6.20911397785469        0.00183013863331       -0.00931955195526
C           -4.79719371832297       -0.00647873345032       -0.00349868930932
C           -4.08616676315519        0.49411978091431        1.10540508236122
C           -2.72388441020944        0.48252281147798        1.12136134496131
C           -1.98148898146064       -0.01819050105501        0.00545572545442
C           -0.61823310765455       -0.02080781366431        0.00832568158490
C            0.61967100151604       -0.02071078901167        0.00962049966413
C            1.98329007634721       -0.01792275264030        0.00970912452968
C            2.72252593113787        0.50891907062838        1.11514164963934
C            4.08515662694247        0.52335285673227        1.10049550470751
C            4.79764651908709       -0.00611430322992        0.00689036591457
N            6.21054278632256        0.00213062101242        0.00418216969632
C            6.88106869715102        1.21390259773828       -0.02291905079599
C            6.15289429002986        2.40705204773857       -0.12063750413391
C            6.78771189975932        3.62907366340883       -0.12698808414849
C            8.16900926623754        3.68950090412772       -0.05283622811828
C            8.89458675842527        2.51391580126401       -0.00606101146050
C            8.28107617947812        1.26857896068195        0.00082813416403
C            9.13721426612121        0.01917208100398       -0.00599799629510
C           10.02287370443642        0.01360727071336        1.25404211944100
C           10.01234374813558        0.03501640671577       -1.27330347029787
C            8.29568007305029       -1.24012291900291       -0.00602903443995
C            8.92356878601658       -2.47827909978945       -0.00302768949266
C            8.21192926349100       -3.66213361764446        0.04920698804064
C            6.83055911100828       -3.61766101005433        0.13290451479761
C            6.18163254528183       -2.40306243582406        0.13041592134136
C            6.89533572826765       -1.20165722289857        0.02724517880234
C            4.08745631350809       -0.54311603136745       -1.08454598175807
C            2.72473383337709       -0.54042232406399       -1.09630544370843
C           -2.72094246578424       -0.51477849896082       -1.11424289411711
C           -4.08333379293891       -0.51472438742018       -1.10710863729261
C           -6.89455776583091       -1.20153844442568       -0.05325178733171
C           -6.18268301186576       -2.40773374938934       -0.00733618109227
C           -6.83169620615652       -3.62008234123639       -0.08018284314909
C           -8.21196636960543       -3.65891851312737       -0.18272214535960
C           -8.92279732495234       -2.47351378594436       -0.17294743587985
C           -8.29469860249628       -1.23766227545434       -0.09877329388062
H          -10.65417491329609        0.81923431912051        1.31595476390929
H           -9.40409087889116       -0.13241468773861        2.11825803182215
H          -10.67028841262447       -0.93672045689950        1.19071853093707
H          -10.64185270697099        0.99322704046177       -1.26537217244042
H          -10.64499309482837       -0.76289006848773       -1.39053649528213
H           -9.37277060325050        0.17375795283604       -2.17552444384674
H           -9.97257507771806        2.56680583735145        0.15783831459072
H           -8.68027704508632        4.63542125194779        0.20303035187689
H           -6.20622259771306        4.53884287974882        0.03371441122402
H           -5.08060863110022        2.37858279430394       -0.10205190448970
H           -4.64359218745936        0.86502337020358        1.95440611413610
H           -2.17869028158466        0.84200095212559        1.98131893836499
H            2.17530182641026        0.88942449352040        1.96467288537094
H            4.64111358992703        0.91887632159754        1.93922502161663
H            5.07853233747331        2.36788422525232       -0.20367976786711
H            6.20315136236103        4.53396992169398       -0.19749604884805
H            8.67801584230551        4.64118295483376       -0.05093917743863
H            9.97200865382989        2.57454144396407        0.02128540976475
H           10.66812683548658       -0.86015677907562        1.27156697303187
H            9.39814940222203       -0.00306843857324        2.14518859340652
H           10.64966578433827        0.90017343498473        1.29091652741144
H            9.38014500054096        0.04437731744844       -2.15927429396603
H           10.64716419277131        0.91627634372971       -1.29608666321500
H           10.64907518198792       -0.84421285918751       -1.31537333385220
H           10.00139893481903       -2.52647480895529       -0.03801687160277
H            8.73187116523854       -4.60787411374784        0.04407361053577
H            6.25703682413195       -4.52924297131341        0.20779904026074
H            5.10746700838657       -2.37609302420005        0.22075140605033
H            4.64501943510155       -0.93435805083884       -1.92421650555483
H            2.17902196711832       -0.92611107422633       -1.94447217858536
H           -2.17329273994387       -0.87948307440303       -1.97043006255214
H           -4.63840138112546       -0.88147266584569       -1.95945040194514
H           -5.10981595198334       -2.38751708502411        0.09820747433110
H           -6.25905767106406       -4.53476592837770       -0.04959030368322
H           -8.73183335321540       -4.60240050029216       -0.24859490817795
H          -10.00027058476082       -2.51876298399735       -0.22021438212734
