82
 energy: -118.346870005246 gnorm: 0.000067147896 xtb: 6.7.1 (edcfbbe)
C          -10.02680141259743        0.02874827010023        1.24851349697956
C           -9.13662542735411        0.02086668174939       -0.00831600212984
C          -10.00716327093438        0.02551473948436       -1.27888966655972
C           -8.27900796036128        1.26909579171892        0.00476363720912
C           -8.89108783197814        2.51511547944373        0.01443120438782
C           -8.16483064550319        3.68927508309462        0.08183506519471
C           -6.78490564815242        3.62617791205109        0.17675382382873
C           -6.15154979041697        2.40343728994568        0.16742986958141
C           -6.87945161449113        1.21227159194382        0.04537450893739
N           -6.20967965438608        0.00008837726679        0.01066707929498
C           -4.79729845908417       -0.00905771913862        0.01407951497363
C           -4.09082598457543       -0.57373386561760        1.09426928877245
C           -2.72822453092882       -0.57526292902951        1.10938624695561
C           -1.98244709894143       -0.02613835203887        0.01915955758369
C           -0.61900925463170       -0.03260069982058        0.02000931082653
C            0.61889105874564       -0.03500021380047        0.01762723652731
C            1.98231074170925       -0.03201078312959        0.01151935010447
C            2.73096219684069       -0.58099201401151        1.09987015892556
C            4.09350657774115       -0.57970884444296        1.08114090267864
C            4.79720504741151       -0.01608195469252       -0.00144265591931
N            6.20951562412846       -0.00366040875704       -0.00684393498672
C            6.89891040137604       -1.20465746023588       -0.04558591717100
C            6.18968807280145       -2.40826054726110       -0.15462637459727
C            6.84337009613177       -3.62022821552733       -0.16819255625377
C            8.22523824347357       -3.65985187454387       -0.09044481211631
C            8.93241569159320       -2.47345768571042       -0.03568270443824
C            8.29965004797689       -1.23784849357424       -0.02217270627894
C            9.13644365408820        0.02453079630974       -0.02514639960567
C           10.00810670282143        0.02726399060925       -1.29494279614803
C           10.02546884267625        0.03883339919332        1.23245467858993
C            8.27563779149163        1.27060144247933       -0.01664387990690
C            8.88461278787758        2.51817326014651       -0.01097354421665
C            8.15546693853462        3.69074466642944        0.05270927475571
C            6.77573791556705        3.62448164638529        0.14816739997521
C            6.14544773295158        2.40013885466328        0.14288146301265
C            6.87622941964741        1.21038072297577        0.02425180869633
C            4.07717638698415        0.53751696025899       -1.07854197618154
C            2.71477374800010        0.52289096675251       -1.08498074833081
C           -2.71773312408501        0.53193706120624       -1.07380585535931
C           -4.08012704170864        0.54713840551697       -1.06354054296317
C           -6.89596656395116       -1.20259252676541       -0.03159020575205
C           -6.18368927926339       -2.40409918671303       -0.14374937130291
C           -6.83431147015997       -3.61765876697796       -0.16121817519772
C           -8.21610659146405       -3.66099325005937       -0.08431878728134
C           -8.92627053688751       -2.47654596883492       -0.02626273844556
C           -8.29662101782190       -1.23939099682875       -0.00874804137188
H          -10.65999027938453        0.91120117979163        1.27044495838551
H           -9.40524181105963        0.03000393479763        2.14202125306337
H          -10.66593719593805       -0.84928288364738        1.27626497949636
H          -10.63346021663969        0.91240986861045       -1.31624996591943
H          -10.65207220750333       -0.84810046706983       -1.31102331027178
H           -9.37180270456182        0.01577282120144       -2.16259287571784
H           -9.96794725677293        2.57737774703477       -0.02735853148107
H           -8.67252755209308        4.64165289896659        0.08057858657249
H           -6.20038506417353        4.52948980226108        0.26548736550582
H           -5.07868084668045        2.36211704180393        0.26699033689869
H           -4.65131527120158       -0.98328989117810        1.92321715560968
H           -2.18580987492652       -0.98326229614794        1.94919728934480
H            2.19074020725852       -0.98792190141404        1.94161091088713
H            4.65610208438799       -0.98823439177805        1.90916736541017
H            5.11512735601833       -2.38525679052815       -0.24093474087960
H            6.27309982665337       -4.53351884085950       -0.24695068285649
H            8.74888693428254       -4.60355079308431       -0.09289695917160
H           10.01061795891015       -2.51749860337920       -0.00749969126170
H           10.63180601531612        0.91587110996919       -1.33489530794823
H            9.37359854390597        0.01249181180316       -2.17918609027254
H           10.65566899268220       -0.84451142717809       -1.32337767049589
H           10.66619117742928       -0.83790871951725        1.26412440960252
H           10.65698519448482        0.92255309928559        1.25157434003186
H            9.40310413031197        0.04234493495200        2.12539841050207
H            9.96131224272040        2.58298028666894       -0.05294642923215
H            8.66077228756962        4.64438034835569        0.04828259552159
H            6.18893672204012        4.52657004777961        0.23424159752180
H            5.07273775276844        2.35661420552753        0.24301718021969
H            4.62760845184003        0.95226438931490       -1.91163148504643
H            2.16210499980072        0.92284825689267       -1.92195460483869
H           -2.16724095063347        0.93355405215832       -1.91142122092928
H           -4.63270918009418        0.96395152446406       -1.89416987493979
H           -5.10915403314021       -2.37824983133123       -0.22942778225008
H           -6.26166801234477       -4.52925068199165       -0.24239732460571
H           -8.73737535205403       -4.60599449553213       -0.08991924935520
H          -10.00437018279909       -2.52337368765645        0.00129238533961
