82
 energy: -118.428814964510 gnorm: 0.000032981799 xtb: 6.7.1 (edcfbbe)
C          -10.01353359336611        0.87571304178060       -0.91231840033411
C           -9.13417911285915        0.00080967634797       -0.00038061149565
C          -10.01542947056940       -0.87289347584796        0.91087292999253
C           -8.28539384350810       -0.90725095150326       -0.87037290842118
C           -8.90263348607525       -1.80431904408356       -1.73084396155678
C           -8.18014330191673       -2.65598187289227       -2.54617281689673
C           -6.79817726430717       -2.61853617112733       -2.50809373111671
C           -6.15851616534542       -1.73703702139701       -1.66249682202149
C           -6.88733434112017       -0.87494007988962       -0.83801132598291
N           -6.21627313131217       -0.00079087031635        0.00032350599297
C           -4.79408619933219       -0.00099714776930        0.00014987383009
C           -4.09881688333187        0.82620016461584       -0.87489675620536
C           -2.71862900259781        0.82763018360828       -0.87688349135510
C           -2.01674046032760       -0.00091320315068        0.00014627792851
C           -0.60370120269456       -0.00067762428664        0.00037990492671
C            0.60369935841908       -0.00035593712284        0.00044188992900
C            2.01674018715236       -0.00003134464471        0.00041566914846
C            2.71877851543942       -0.82970387504830       -0.87541443355029
C            4.09896347866369       -0.82807299165302       -0.87338307103231
C            4.79408664326347        0.00042282013941        0.00054973293249
N            6.21627487365550        0.00056042621225        0.00057690035484
C            6.88712340633937       -0.87381656755116        0.83884923192357
C            6.15810550704180       -1.73485324089131        1.66426717677985
C            6.79755837358187       -2.61656316007882        2.50980197431092
C            8.17951490769355       -2.65527256817322        2.54690516686449
C            8.90220422962986       -1.80458735127822        1.73073315019523
C            8.28517531685236       -0.90730980673345        0.87032811359324
C            9.13417623198327       -0.00033504073960       -0.00058976233002
C           10.01366132745660       -0.87517429837821       -0.91245673010128
C           10.01530849640439        0.87378011500014        0.91037903978349
C            8.28503566267741        0.90733407398942       -0.87064766278481
C            8.90192310216705        1.80435451131783       -1.73142147043146
C            8.17909963909857        2.65565703472761       -2.54683109344814
C            6.79714949108854        2.61784295805075       -2.50856927692044
C            6.15783481297309        1.73635116222116       -1.66270328092057
C            6.88698978191671        0.87468154954923       -0.83806791060483
C            4.09862472690217        0.82870720435096        0.87441191060207
C            2.71843533495554        0.82986682238352        0.87631807514067
C           -2.71858404939956       -0.82957687429842        0.87708507622553
C           -4.09877026435436       -0.82823487485369        0.87511830874354
C           -6.88677941954436        0.87396550643901        0.83847505164132
C           -6.15742411654175        1.73518978897613        1.66340093765601
C           -6.79653309692180        2.61724624526524        2.50883247226429
C           -8.17847397420351        2.65615706504106        2.54629125747121
C           -8.90149557085917        1.80536768596714        1.73052240024355
C           -8.28481852265084        0.90775311226491        0.87021836339430
H          -10.64968668619568        0.26158509307834       -1.54372634165537
H           -9.38433393918085        1.49043194320849       -1.55349424505364
H          -10.64928054273507        1.53243667268934       -0.32490275817103
H          -10.65164834741068       -1.52873783060722        0.32298664052658
H          -10.65120957395101       -0.25790972558693        1.54181740534263
H           -9.38757051106186       -1.48849107111891        1.55251532850921
H           -9.98077739589049       -1.84494349621856       -1.77107463475132
H           -8.69294102266577       -3.34131226310203       -3.20375132428061
H           -6.21432894498774       -3.27508535492433       -3.13605723113885
H           -5.07958003528467       -1.71279910512901       -1.63711926319616
H           -4.64997190398754        1.46432507534422       -1.54978378385129
H           -2.17292458926709        1.46792058506759       -1.55406415461453
H            2.17318500279109       -1.47096308357100       -1.55176432953313
H            4.65022587442769       -1.46704790129935       -1.54737384442905
H            5.07917541326009       -1.70961971200972        1.63968134367193
H            6.21355156095551       -3.27225773235389        3.13851008752211
H            8.69215134901809       -3.34083009364694        3.20437116698075
H            9.98033763955402       -1.84620010812538        1.77019762535183
H           10.64956262063251       -0.26100397304239       -1.54407825478319
H            9.38455328274958       -1.49020516434900       -1.55341686960625
H           10.64966649226552       -1.53160610045719       -0.32499340420339
H            9.38735133004033        1.48933119355541        1.55196716240291
H           10.65134637790284        0.25909715301227        1.54136084426304
H           10.65126760644261        1.52968150928144        0.32227689401570
H            9.98004978460111        1.84524044986808       -1.77182047291451
H            8.69162850603646        3.34099845378355       -3.20460663681063
H            6.21304188453226        3.27406708388104       -3.13663089449539
H            5.07890938663018        1.71179570673312       -1.63722346235300
H            4.64961274688944        1.46783648575947        1.54847993985627
H            2.17257547383936        1.47091296098160        1.55265669605972
H           -2.17283623596165       -1.46977839544018        1.55431012496933
H           -4.64986536662752       -1.46638648977951        1.55002017397897
H           -5.07850412449648        1.70986969423316        1.63847224106539
H           -6.21226800375060        3.27310454947586        3.13713016720504
H           -8.69084353382504        3.34200867784065        3.20365837881537
H           -9.97961250750351        1.84716755840018        1.77023281092547
