82
 energy: -118.429803818625 gnorm: 0.000046517971 xtb: 6.7.1 (edcfbbe)
C          -10.02311024582436       -0.00191218421230        1.22703828418856
C           -9.13356598951739        0.02156559764377       -0.02938600121028
C          -10.00448549765921        0.05856249920563       -1.29848285659975
C           -8.27504169070207        1.27174072358463        0.00455524053496
C           -8.88432922741162        2.51871015851385        0.02378972998578
C           -8.15470919052833        3.69303088194768        0.03648380468372
C           -6.77328523590378        3.63036753877454        0.01886007241814
C           -6.14175835423783        2.40481664237365        0.00040483217312
C           -6.87732863683486        1.21591343584589        0.00519741622646
N           -6.21422076201901       -0.00083344516988       -0.00709284000467
C           -4.79357902929132       -0.01103707570523        0.00014288699198
C           -4.10141479981416        0.19312647390574        1.18959147697874
C           -2.72189531388662        0.18890922949144        1.19785419929742
C           -2.01364489554317       -0.02348426335733        0.01250631360404
C           -0.60359762612305       -0.02555686263952        0.01679688474951
C            0.60432247661461       -0.02398652848605        0.01787337576069
C            2.01440575001924       -0.02001180441175        0.01633906480848
C            2.71965537579826        0.22968776718838        1.19619666010863
C            4.09922699564683        0.23514004650764        1.19092032021561
C            4.79398089537411       -0.00621484982715        0.01011858629722
N            6.21505933370270        0.00264772277309        0.00629853736114
C            6.87906885494202        1.21707582653965       -0.05441058119631
C            6.14406108119661        2.40383707062456       -0.13063774866273
C            6.77650118182080        3.62777990133987       -0.18687588358296
C            8.15799143972446        3.69029101253052       -0.17294955747797
C            8.88694457091882        2.51699008431531       -0.11223451120758
C            8.27683179931009        1.27161757203557       -0.05546412611187
C            9.13405625516630        0.02088418563850       -0.00845709673601
C           10.02001602761842        0.07535353270656        1.24952564911006
C           10.00867813152793       -0.02256763072875       -1.27479299703060
C            8.29304285259348       -1.24048363544032        0.04645484483973
C            8.91912334820176       -2.47819690892943        0.09640448384423
C            8.20542478351464       -3.66051367707528        0.16327407711361
C            6.82345569640263       -3.61523368095794        0.19071481553064
C            6.17532915976399       -2.39921578092005        0.14171251989512
C            6.89477154444771       -1.20338010366148        0.05916789701021
C            4.09640802959484       -0.25552964065514       -1.16736433347093
C            2.71690172175056       -0.26380111079816       -1.16644372200442
C           -2.71334472117030       -0.23148641396861       -1.17877132779372
C           -4.09278354057692       -0.22330244569963       -1.18283098580455
C           -6.89563081813103       -1.20715398674505       -0.03041625513590
C           -6.17833251248843       -2.40706610110394       -0.01530007537089
C           -6.82809906964654       -3.62284235271679       -0.04436006490932
C           -8.20991178604538       -3.66440158939636       -0.08301655866457
C           -8.92172707563030       -2.47912966614164       -0.08035210502300
C           -8.29388109842682       -1.24160910505907       -0.05100408739240
H          -10.65088955654151        0.88359270836173        1.27491400689248
H           -9.40115910068437       -0.03055986457008        2.11991190415635
H          -10.66769601559475       -0.87654205364708        1.23046915895114
H          -10.63548191428329        0.94295908714964       -1.31112590115973
H          -10.64505115883195       -0.81718141988923       -1.35553489942004
H           -9.36937217382514        0.07758746968798       -2.18230083569689
H           -9.96206921554878        2.58247875644013        0.02751891485781
H           -8.66127773220161        4.64597932527856        0.05345027114313
H           -6.18318976768101        4.53480938132659        0.01712134304198
H           -5.06339419563891        2.36495946840244       -0.02220966697797
H           -4.65596931611441        0.35796366070995        2.10169286628970
H           -2.18016834788229        0.34717156115103        2.11862933655311
H            2.17554026758967        0.41639000400702        2.11021052237922
H            4.65169853214544        0.42878201256334        2.09859642444733
H            5.06560867340787        2.36286569935000       -0.14943608131275
H            6.18718458244058        4.53095546294136       -0.24363206098899
H            8.66524128432276        4.64212911570949       -0.21451559808879
H            9.96472687254536        2.58030007417057       -0.11074202182370
H           10.66486673895603       -0.79710000918123        1.30862417640841
H            9.39553771839526        0.10148146711223        2.14070989536351
H           10.64736956767341        0.96244131633400        1.24453666969873
H            9.37615480530445       -0.05619207900001       -2.16003424491295
H           10.64220618394125        0.85771686962508       -1.33976895446395
H           10.64689267366222       -0.90188231962587       -1.27601018509601
H            9.99754636067166       -2.52808831865964        0.08441561791503
H            8.72485679317399       -4.60599613488308        0.19904242496477
H            6.24602059759700       -4.52573637193163        0.25232388649432
H            5.09667889664078       -2.37154640030840        0.17109888794875
H            4.64670127193632       -0.44353817950999       -2.07754646845124
H            2.17056257742946       -0.45572710651583       -2.07804171666848
H           -2.16478201346119       -0.39442259210876       -2.09466675954156
H           -4.64067936129881       -0.38291043414227       -2.09987172033018
H           -5.09993584904228       -2.38333371210328        0.02380463009813
H           -6.25203124734349       -4.53623023588484       -0.03427277833744
H           -8.73063187073607       -4.60950548231574       -0.10846900787799
H          -10.00013561207558       -2.52647593686944       -0.10046347113426
