  97
       -161.59894295
 F         -4.1007900305       -5.9422161483       -0.7004562545
 C         -4.3928456071       -5.3690634955        0.4785842711
 F         -5.4535674076       -6.0436500659        0.9667500791
 F         -3.3680671766       -5.6379148544        1.2988107633
 C         -4.6753149252       -3.8998132940        0.3485388643
 C         -4.2294496794       -3.0102169756        1.3169282181
 C         -4.5191524144       -1.6650387479        1.1937527067
 C         -5.2565162204       -1.2096339848        0.1042929187
 N         -5.5131456541        0.1612540367       -0.0372353647
 C         -4.5476787534        1.1416447804       -0.1826950149
 C         -3.1140506888        0.9104677005       -0.2050478062
 C         -2.5275470462       -0.2349589490       -0.7420750370
 C         -1.1558984770       -0.3859803930       -0.7315709478
 C         -0.3278462297        0.6049343988       -0.2079488765
 C          1.1301106347        0.4367102878       -0.1985668880
 C          1.7056826225       -0.7858001554        0.1471340609
 C          3.0748472048       -0.9363476444        0.1725342257
 C          3.9145446801        0.1301030720       -0.1553837405
 C          5.3470957863       -0.0984134462       -0.1304532300
 N          5.8886501114       -1.2698508266       -0.3594556534
 C          7.2375096014       -1.1087546496       -0.3035132050
 C          8.1278928431       -2.2464202512       -0.4783179263
 C          7.6858265257       -3.3392742014       -1.2228151247
 C          8.5016850552       -4.4387710173       -1.4044556955
 C          9.7676586481       -4.4664130425       -0.8420874695
 C         10.2069287994       -3.3921526824       -0.0856992419
 C          9.3945604164       -2.2895780374        0.1007823489
 C          7.5299917086        0.2193342393       -0.0352662284
 C          8.8015697697        0.9180516807        0.0950259702
 C          9.7856182970        0.7485257081       -0.8787582827
 C         10.9918287682        1.4133369251       -0.7748956751
 C         11.2327620972        2.2579232689        0.2972101002
 C         10.2628286792        2.4276619372        1.2706528378
 C          9.0542998915        1.7633468386        1.1738870114
 N          6.3123346586        0.8531346926        0.0843657379
 C          6.1309817562        2.2079540516        0.4153961686
 C          5.3559818653        2.5509638566        1.5186217743
 C          5.1880342469        3.8824308665        1.8495423705
 C          5.7961983099        4.8714105473        1.0933935675
 C          6.5713046190        4.5273507157       -0.0014127015
 C          6.7405913836        3.1987713736       -0.3459142239
 C          3.3417360355        1.3430185759       -0.5368788955
 C          1.9701402351        1.4930987291       -0.5451771640
 C         -0.9164009095        1.7649524421        0.2955046658
 C         -2.2858605116        1.9150954992        0.2997814621
 N         -5.0770087261        2.3290212471       -0.3195052760
 C         -6.4233378914        2.1548479776       -0.2721852395
 C         -7.4347331921        3.1457212377       -0.4112905480
 C         -7.1079406794        4.4886370189       -0.6264256330
 C         -8.0985097834        5.4244208731       -0.7891017415
 C         -9.4323746359        5.0235113356       -0.7432488919
 C         -9.7645414615        3.7064908837       -0.5272289050
 C         -8.7813200669        2.7215625201       -0.3454704239
 C         -9.0978255794        1.3300778318       -0.0733909060
 C        -10.4224351207        0.8940679395        0.0729977409
 C        -10.7324859563       -0.4083633995        0.3848674608
 C         -9.7175212506       -1.3380120649        0.5870551594
 C         -8.4071111295       -0.9552757721        0.4410493940
 C         -8.0700199659        0.3595139870        0.0877396258
 C         -6.7307984648        0.8090529558       -0.0868715656
 C         -5.7041678962       -2.1083270074       -0.8636089509
 C         -5.4172822826       -3.4524307322       -0.7393370994
 H         -3.6579858633       -3.3690370475        2.1585700160
 H         -4.1744718398       -0.9610568080        1.9352731874
 H         -3.1366280042       -1.0012373418       -1.1975405532
 H         -0.7158817031       -1.2727750469       -1.1634877608
 H          1.0695555359       -1.6147101581        0.4213447349
 H          3.5252698935       -1.8778731782        0.4449143850
 H          6.6954398321       -3.3042630465       -1.6497188845
 H          8.1510250534       -5.2791161371       -1.9863704741
 H         10.4072383194       -5.3251831661       -0.9856081801
 H         11.1876441510       -3.4159457797        0.3675389890
 H          9.7376706567       -1.4650752746        0.7080931471
 H          9.5928300403        0.0912850947       -1.7141835513
 H         11.7468393479        1.2747450424       -1.5347916275
 H         12.1756071004        2.7784984773        0.3756222278
 H         10.4483910510        3.0787062593        2.1125011016
 H          8.3081386522        1.8891662435        1.9454720187
 H          4.8900588415        1.7720495984        2.1042526672
 H          4.5853508904        4.1477608999        2.7051283565
 H          5.6659981813        5.9098637746        1.3578734973
 H          7.0453195062        5.2957463431       -0.5933447361
 H          7.3391544134        2.9235546936       -1.2014825262
 H          3.9647017620        2.1676858502       -0.8493538012
 H          1.5403370620        2.4346156366       -0.8546231791
 H         -0.2901198593        2.5433790905        0.7059801817
 H         -2.7441346508        2.8089299942        0.6932165503
 H         -6.0628251470        4.7535093753       -0.6653918029
 H         -7.8519368179        6.4624608529       -0.9562376493
 H        -10.2156435996        5.7553586406       -0.8781590217
 H        -10.8102205792        3.4442506793       -0.5020692949
 H        -11.2331274322        1.5936424012       -0.0501107029
 H        -11.7651400013       -0.7064281559        0.4892545870
 H         -9.9567936737       -2.3546223878        0.8613477747
 H         -7.6251201645       -1.6758324953        0.6214164418
 H         -6.2751799077       -1.7444833321       -1.7043777770
 H         -5.7566131071       -4.1544303003       -1.4853119089
