96
 energy: -149.991517017897 gnorm: 0.000081857126 xtb: 6.7.1 (edcfbbe)
C           -3.17043077334184       -5.51098736224500        0.85206578785074
C           -1.87701449523053       -5.48385954049653        1.35003567783119
C           -1.05453950933822       -4.40241274491876        1.10195795899197
C           -1.51652359376981       -3.33185046841718        0.33660353022139
C           -0.70273366288184       -2.14374651397696        0.09216502513184
N           -1.33392763953560       -0.97717984900634        0.07873682145274
C           -0.72271463121080        0.20000844781124        0.01997327592394
C           -1.42108239057186        1.41598698537622        0.00869959436714
C           -2.88204959833277        1.42332584915666        0.04684018050449
C           -3.60205582328556        0.44124911901148        0.73036688546701
C           -4.97991281901171        0.42895270946517        0.72162861118835
C           -5.68561217507870        1.40304936670403        0.01968979755407
N           -7.08499318652109        1.37318173037664       -0.01435969188203
C           -7.92632398172307        2.43401075228777        0.25248871189771
C           -7.61913643738329        3.72579423546919        0.65594420711927
C           -8.66727117214888        4.59696925353871        0.88274757322922
C           -9.99256571025792        4.19815855923444        0.72315859281239
C          -10.30520493216885        2.90722690499143        0.34588150572927
C           -9.26915462745575        2.01317078686198        0.11207502169554
C           -9.22483133345377        0.62725782871659       -0.26256055392255
C          -10.20162172289694       -0.31513923926360       -0.55485932414453
C           -9.80619284319232       -1.58900624856413       -0.91157841506315
C           -8.45624664049840       -1.92348818162068       -0.99311581224181
C           -7.46588476697104       -1.00349250342521       -0.70734585380621
C           -7.85754177347484        0.27193614728860       -0.32509052123603
C           -4.98057863245968        2.39941506854364       -0.65167113976234
C           -3.60237834572492        2.41332243574655       -0.62835995262686
C           -0.68232252971931        2.60907030641387       -0.01407789197603
C            0.69006775504034        2.60707230270478        0.00407550245547
C            1.42582836651024        1.41193932793564       -0.01381464725203
C            2.88686877738458        1.41685551751724       -0.04984380256077
C            3.60703769942234        0.43227738420103       -0.72949866979587
C            4.98496646505249        0.42022286445609       -0.72043948921681
C            5.69048611926540        1.39655407027181       -0.02136891502673
N            7.08990809653578        1.36839453083842        0.01204181661231
C            7.86445760411486        0.26870000080597        0.32340144182804
C            7.47524234908392       -1.00699659418125        0.70722910137901
C            8.46734182665488       -1.92506237585176        0.99322404304348
C            9.81667693216389       -1.58845409812506        0.91040994618846
C           10.20971036015141       -0.31423103098419        0.55236238339822
C            9.23112829707566        0.62624516373104        0.25989946449574
C            9.27300586516088        2.01197435037116       -0.11561702161379
C           10.30757677133098        2.90761249066209       -0.34992264072736
C            9.99280023786426        4.19794473527899       -0.72744276906339
C            8.66682627755721        4.59446179080617       -0.88701345235816
C            7.62015583709255        3.72161146644502       -0.65985837998524
C            7.92943761848143        2.43048857130632       -0.25583063526856
C            4.98512919150106        2.39421956704640        0.64773888882112
C            3.60700029032219        2.40821889013195        0.62360143636054
C            0.72447856835423        0.19768642710457       -0.02208307630511
N            1.33198763478770       -0.98177778387933       -0.07761290963805
C            0.69665259475337       -2.14613154277209       -0.08746157657619
C            1.50525092486446       -3.33874283583398       -0.32740944770219
C            2.81440895566137       -3.37016874117811        0.15682200455471
C            3.62464348664531       -4.46038217887613       -0.09189726685867
C            3.14672989057613       -5.52942550648667       -0.83249019540999
C            1.85582074040247       -5.49442593654163       -1.33644928989897
C            1.03947239936039       -4.40724720875592       -1.09334465501418
C           -2.82805097450305       -3.35553330307095       -0.14191892669567
C           -3.64449784036848       -4.43981923744891        0.11206622950523
H           -3.80853132773935       -6.35960171692708        1.04858376263421
H           -1.50950229777436       -6.30828998816693        1.94319486326727
H           -0.05601473730602       -4.37890021772743        1.51235784399076
H           -3.07168847570675       -0.31461872085341        1.28880989353764
H           -5.51990882960186       -0.32616666639142        1.27334209873633
H           -6.59603778754471        4.03828494232361        0.80101228165154
H           -8.45442821537656        5.60886269610623        1.19484882680814
H          -10.78345454632030        4.90987755098454        0.90777959007012
H          -11.33265096508903        2.59368393626822        0.23805203431233
H          -11.24738003727197       -0.05118119046508       -0.50740427762117
H          -10.55008595982422       -2.33757179520309       -1.14061126000101
H           -8.17792208470981       -2.92392343341504       -1.29059121301701
H           -6.42233727456766       -1.26717630180325       -0.79031294121687
H           -5.52139017311903        3.14484622963724       -1.21586756431613
H           -3.07486330749159        3.17465722148312       -1.18296632769523
H           -1.21081930613783        3.54985100299025       -0.00715165986742
H            1.22120284075224        3.54632999598021       -0.00657363179923
H            3.07669934069736       -0.32557584192630       -1.28530394936834
H            5.52511701595413       -0.33638024297116       -1.26995638203226
H            6.43222343373902       -1.27237643336882        0.79134242135479
H            8.19085627837418       -2.92564803006012        1.29188925878657
H           10.56197359423661       -2.33559386531926        1.13953377250184
H           11.25498163633817       -0.04851438456461        0.50395611138199
H           11.33553937899181        2.59575436293820       -0.24213161559586
H           10.78248464455121        4.91095812294479       -0.91222746903774
H            8.45223981599965        5.60592443754343       -1.19932396602065
H            6.59658913692532        4.03246548603270       -0.80507827459785
H            5.52565347429722        3.14085490333120        1.21060735593943
H            3.07928830351915        3.17093623386265        1.17611237893165
H            3.17887744568069       -2.53114840353475        0.73083251194365
H            4.63441845094411       -4.47630840046156        0.29165897868470
H            3.77996536723694       -6.38265259844648       -1.02473496122383
H            1.48549260166134       -6.31723930223096       -1.93010217793333
H            0.04272411303812       -4.37766160064969       -1.50769552235239
H           -3.18950284687232       -2.51490590125264       -0.71548573176987
H           -4.65616134640361       -4.44934801591058       -0.26671642904244
