96
 energy: -150.041465471300 gnorm: 0.000057192786 xtb: 6.7.1 (edcfbbe)
C           -3.05077848623000       -5.49675087670323        1.01454011452897
C           -1.74274459188595       -5.42758751343396        1.46639892681832
C           -0.96101438244635       -4.32568333297771        1.17511801767761
C           -1.48565652654042       -3.27834771413448        0.42106987414437
C           -0.70154540079677       -2.07444462666426        0.12497190521667
N           -1.36299368392120       -0.94292900471804        0.15721127762231
C           -0.70851664273895        0.22402960746190        0.04343087378587
C           -1.42663180971710        1.44884563949681        0.04552374215506
C           -2.89280241671925        1.44722858097653        0.06419443078777
C           -3.60256090557925        0.58721097364015        0.90084525573641
C           -4.98137326162995        0.56869772871516        0.88520058137653
C           -5.68581191884722        1.40302473539097        0.02104299000418
N           -7.08478084642681        1.35314345184078       -0.02030590690266
C           -7.94050373381420        2.43371274097549        0.05199048110933
C           -7.65254450611002        3.77874597669723        0.23477770244756
C           -8.71266274465048        4.66229739006504        0.30025667793216
C          -10.03157340761146        4.22566602630341        0.19604224884151
C          -10.32533366004200        2.88606412797300        0.03848217137349
C           -9.27672501649772        1.97839309262470       -0.03011062245143
C           -9.21334266363187        0.55001980332564       -0.16456590631436
C          -10.17686067555564       -0.44015474669658       -0.30473950171015
C           -9.76411469754978       -1.75079954410054       -0.43629788758989
C           -8.40982170158310       -2.07777994490310       -0.44424520299091
C           -7.43251156219963       -1.11102280533964       -0.30659313729058
C           -7.84212868457637        0.20568265153277       -0.14984862498766
C           -4.98524910264686        2.27583568138817       -0.80708391689640
C           -3.60568070322754        2.30033372961151       -0.77681036453013
C           -0.69905702340695        2.61854535022816        0.01341571580553
C            0.69864370736988        2.61905726831269       -0.00473729149385
C            1.42728769889499        1.45016562142505       -0.04317062899960
C            2.89347788092906        1.45046651667209       -0.05941593498190
C            3.60617615368507        0.59620063527674       -0.89941033848927
C            4.98502132977433        0.57997463256765       -0.88142420001597
C            5.68662531792567        1.41022179401253       -0.01099977923242
N            7.08553352827231        1.36260899727844        0.03272935418150
C            7.84515294216351        0.21555085006070        0.15312028249226
C            7.43835716626979       -1.10355652260305        0.29655440287137
C            8.41761600605187       -2.06938896520583        0.42675495866992
C            9.77117244774453       -1.73934694417909        0.42447297356087
C           10.18109868465943       -0.42650569926059        0.30684227258402
C            9.21555135779635        0.56276714201853        0.17455982053695
C            9.27611004969549        1.99255919422855        0.05486523695741
C           10.32299560374557        2.90309890568403       -0.00069199404676
C           10.02688710976241        4.24370171454542       -0.14468862552775
C            8.70738502842891        4.67850767184312       -0.24885772723599
C            7.64898477551019        3.79202508225231       -0.19639113781398
C            7.93913392915983        2.44576334623445       -0.02639603981772
C            4.98298885529388        2.27695313177874        0.82097255415862
C            3.60349643664228        2.29978654512091        0.78784169657262
C            0.71029389706736        0.22467750466835       -0.04860159006911
N            1.36543781850197       -0.94136458092038       -0.16850805177388
C            0.70462947324609       -2.07345457815964       -0.14129063591342
C            1.48855936563945       -3.27637979273368       -0.44159997779873
C            2.81358102125911       -3.34154611627882       -0.01438591988768
C            3.58694666919130       -4.44824845111944       -0.30665578657409
C            3.05135872377660       -5.49546385386645       -1.03900274126771
C            1.74278911575474       -5.42498827480940       -1.48908986715502
C            0.96230657089173       -4.32268399621735       -1.19601199530647
C           -2.81000012783866       -3.34238769493109       -0.00833643249029
C           -3.58450565831121       -4.44882547853777        0.28187612091915
H           -3.65522128176581       -6.36271066313644        1.24070780432182
H           -1.33009491892920       -6.23549097586665        2.05258261256836
H            0.05178088637928       -4.26888496571310        1.54644266450861
H           -3.06659387521716       -0.06323376941166        1.57248292438891
H           -5.52342877769803       -0.08605573317356        1.55110572125572
H           -6.63476859175830        4.12457018798467        0.33544468858626
H           -8.51457682599197        5.71500298080492        0.43935937615295
H          -10.83222258339496        4.94836729011365        0.24945201504780
H          -11.34786712995167        2.54559647126599       -0.02587473746343
H          -11.22571809910438       -0.18444518985919       -0.31460871055357
H          -10.49728410838183       -2.53636899047089       -0.54404920695023
H           -8.11767172563368       -3.11079579893439       -0.56443591482063
H           -6.38538836826806       -1.37269581289935       -0.33093310818912
H           -5.52720100606706        2.91379300343952       -1.48935472643243
H           -3.07030825078538        2.96267607165821       -1.44164682272929
H           -1.22025138817572        3.56490944750787        0.03061232512492
H            1.21910034900357        3.56591370794794       -0.01613643044660
H            3.07246891686206       -0.05138395400854       -1.57561065422174
H            5.52927067007386       -0.06975642317225       -1.55043535746133
H            6.39185591345981       -1.36799919100006        0.31672528167180
H            8.12754469948183       -3.10414942180185        0.53650942679788
H           10.50594775961357       -2.52428363525358        0.52568903119968
H           11.22933063577278       -0.16846678169444        0.32129254594302
H           11.34602930656274        2.56409644308808        0.06341450630411
H           10.82610854076851        4.96869035205633       -0.18737160276263
H            8.50741482649828        5.73219450971451       -0.37743881155522
H            6.63091405575189        4.13688596712157       -0.29722433596517
H            5.52238998130246        2.91142698567958        1.50847202800445
H            3.06591070445700        2.95762789220324        1.45535372482870
H            3.21725557939928       -2.51364713335718        0.54892203955075
H            4.61081683643569       -4.49499018348734        0.03448134903258
H            3.65469420181811       -6.36190484511225       -1.26629399939259
H            1.32866007296500       -6.23228053507013       -2.07507836985321
H           -0.05088705752578       -4.26488711398906       -1.56607140173433
H           -3.21227874561406       -2.51373891963393       -0.57153733179725
H           -4.60786881606114       -4.49468593289743       -0.06088558661106
