96
 energy: -149.991481840188 gnorm: 0.000073419824 xtb: 6.7.1 (edcfbbe)
C           -3.13921187169171       -5.49343236120359        0.89093821896944
C           -1.83761881150078       -5.46195565592519        1.36690884371901
C           -1.02352013977124       -4.37734602430663        1.10566969623185
C           -1.50245118572353       -3.30775897145065        0.34926640077427
C           -0.69697338857659       -2.11646914916453        0.09411954756020
N           -1.33150417674411       -0.95163016609681        0.09210425183668
C           -0.72266901259443        0.22684833242707        0.02947450699812
C           -1.42185417158796        1.44179363018174        0.02395478754119
C           -2.88317786993682        1.44256376674139        0.06379318899522
C           -3.59552133275314        0.47305360667737        0.77205757488751
C           -4.97332112851863        0.45112774876228        0.76275902179058
C           -5.68522353328058        1.39848729860161        0.03080411119828
N           -7.08389694167487        1.35309067946863       -0.00859828049532
C           -7.93819606023288        2.41559444016877        0.20681549897843
C           -7.64829472222034        3.72718251839691        0.55567712162421
C           -8.70731018390511        4.59628419289071        0.73509758638414
C          -10.02703130031110        4.17676514741779        0.58299029293622
C          -10.32289819933025        2.86677686912300        0.26227046962139
C           -9.27556827186699        1.97462833754777        0.07641974229724
C           -9.21447671428986        0.57409851981914       -0.23607174757030
C          -10.18022970686200       -0.39045666375172       -0.49030263998975
C           -9.77020178802025       -1.67472006683664       -0.78822415471430
C           -8.41647698041489       -1.99770399560190       -0.85042615396947
C           -7.43700276656807       -1.05551945617598       -0.60179665690569
C           -7.84324283516682        0.23109093241863       -0.27611166634730
C           -4.98674553741515        2.38212804299277       -0.66591268792746
C           -3.60866267544498        2.40948193004206       -0.63770577160258
C           -0.68723612050850        2.63698839825687        0.00242671373311
C            0.68565422985372        2.63761386858383        0.01870953259681
C            1.42150813826010        1.44334620437236       -0.01080538797261
C            2.88284119149712        1.44599571409891       -0.05038887529413
C            3.59644315974814        0.48219050826423       -0.76513320845699
C            4.97427751159812        0.46188392831484       -0.75581619747323
C            5.68494423235033        1.40506817847253       -0.01729418650873
N            7.08367049517252        1.36123395677804        0.02195824715413
C            7.84453425341836        0.23844988840519        0.28177248843653
C            7.44005717650014       -1.05102205914694        0.59820795967794
C            8.42081059544069       -1.99353879688116        0.84045537423920
C            9.77408941820709       -1.66818315551483        0.78097106310945
C           10.18235582373411       -0.38124751060861        0.49230339221360
C            9.21529098335368        0.58369341156466        0.24461367772682
C            9.27448413082465        1.98649246925834       -0.05789687854698
C           10.32060348452998        2.88143863998956       -0.23699310418879
C           10.02297857804882        4.19325644830332       -0.54847807475753
C            8.70271278743013        4.61194878191451       -0.69811860640850
C            7.64488213422671        3.74007496829751       -0.52529197703689
C            7.93652679916430        2.42645827904775       -0.18562563120483
C            4.98517250054992        2.38301562722031        0.68611461514264
C            3.60706873792795        2.40891684746063        0.65787639353225
C            0.72360184899271        0.22772805668444       -0.02458835808143
N            1.33359255329047       -0.94972106543303       -0.09515362228161
C            0.70016616765043       -2.11512411842486       -0.10495285922997
C            1.50667779046826       -3.30402529856286       -0.36785421833314
C            2.82603129122613       -3.33402197698218        0.08824943332579
C            3.63479542323768       -4.41925892958701       -0.18554055211337
C            3.14520251447031       -5.48487558794197       -0.92347220927742
C            1.84362208269296       -5.45135499718312       -1.39934093351666
C            1.02865035466474       -4.36909302667867       -1.13117845842582
C           -2.82180819838397       -3.33586733625520       -0.10694690452394
C           -3.62969763905188       -4.42347865709109        0.15990737633640
H           -3.77076018029486       -6.34452009495751        1.09767134151928
H           -1.45707393825307       -6.28539753054312        1.95319813963051
H           -0.01817444723297       -4.35040177706551        1.49888307149583
H           -3.05961396947235       -0.26391708947841        1.35012239055755
H           -5.50837850950762       -0.29129263601338        1.33598340867178
H           -6.63010900450578        4.05735550788696        0.69571409281969
H           -8.50746011660368        5.62333114956919        1.00320656706691
H          -10.82676796895435        4.88761693640662        0.72872132954557
H          -11.34602770017256        2.53735607884537        0.16096225588940
H          -11.22881716528387       -0.13552317471590       -0.45874145526779
H          -10.50523578152325       -2.44073279411782       -0.98601720926820
H           -8.12630826718451       -3.00716516918576       -1.10266557636491
H           -6.39067949479915       -1.31201487785503       -0.67053430110213
H           -5.53169324977617        3.10597499126405       -1.25363116363176
H           -3.08444628878657        3.16086106615915       -1.20897995304735
H           -1.21948414969958        3.57573134706795        0.01311702013238
H            1.21695661255438        3.57694510270556        0.01431903944508
H            3.06148883082602       -0.25148271609685       -1.34825632308819
H            5.51029701017647       -0.27593159634106       -1.33406359013878
H            6.39408706144977       -1.30951195583027        0.66481444655766
H            8.13201629271736       -3.00517969890713        1.08543516332434
H           10.51016456165905       -2.43452222076151        0.97355242676283
H           11.23058310026136       -0.12458321272302        0.46288876800274
H           11.34416613774985        2.55277062739585       -0.13764057620267
H           10.82174595618271        4.90627788226056       -0.68881621265455
H            8.50148656601433        5.64058867930607       -0.95899549333387
H            6.62628046677448        4.06978191529564       -0.66339085930424
H            5.52915827348441        3.10343441795738        1.27891378490832
H            3.08186805121319        3.15571694042992        1.23422878153267
H            3.19947738034163       -2.49742401266434        0.66003526871832
H            4.65267164378692       -4.43393782462085        0.17605536242559
H            3.77742766139426       -6.33412817664215       -1.13561287338238
H            1.46376730746426       -6.27130222680867       -1.99095046087811
H            0.02330861722354       -4.34041740678779       -1.52428222313369
H           -3.19595977608710       -2.49589976222479       -0.67330606437049
H           -4.64759192136438       -4.43662367446266       -0.20169365207848
