  96
       -149.98553807
 C         -3.1472024400       -5.5497421557        0.9046671744
 C         -1.8535987278       -5.5053570910        1.4011239764
 C         -1.0400771890       -4.4212503249        1.1364013699
 C         -1.5121749152       -3.3647502653        0.3575684514
 C         -0.7040606949       -2.1766525641        0.0953049878
 N         -1.3360671674       -1.0126941344        0.0720882867
 C         -0.7228233701        0.1616412296        0.0086992734
 C         -1.4256575140        1.3794680095       -0.0145396849
 C         -2.8814584098        1.3976851536        0.0223049322
 C         -3.6170872885        0.3868651440        0.6501679368
 C         -4.9937644502        0.3862943756        0.6363514835
 C         -5.6905917050        1.4059372624       -0.0090007474
 N         -7.0896414455        1.3933897311       -0.0408256176
 C         -7.9185863132        2.4444272237        0.2944735804
 C         -7.5956192619        3.7092686918        0.7655746803
 C         -8.6336994840        4.5744780721        1.0540263920
 C         -9.9640176695        4.1951931807        0.8897796818
 C        -10.2922014874        2.9298818840        0.4438105631
 C         -9.2667513380        2.0429723724        0.1465621146
 C         -9.2386502333        0.6795750070       -0.3055320689
 C        -10.2264372033       -0.2365919524       -0.6399387037
 C         -9.8455561290       -1.4918517173       -1.0719025380
 C         -8.4995853142       -1.8323294609       -1.1862967922
 C         -7.4983152073       -0.9377303606       -0.8601418286
 C         -7.8751003583        0.3173746746       -0.4027872293
 C         -4.9733558663        2.4322384777       -0.6214098663
 C         -3.5962927744        2.4319972464       -0.5960342163
 C         -0.6780195214        2.5720516244       -0.0251755105
 C          0.6911004520        2.5685289288        0.0212386172
 C          1.4327465775        1.3724481348        0.0102157287
 C          2.8886900394        1.3851079817       -0.0262234140
 C          3.6207847226        0.3788903914       -0.6649829272
 C          4.9977731925        0.3774137654       -0.6560047771
 C          5.6972059055        1.3898289973       -0.0022963133
 N          7.0964058900        1.3805309626        0.0238170824
 C          7.8885966051        0.3049419311        0.3724071438
 C          7.5201715308       -0.9612113292        0.8053949863
 C          8.5272631019       -1.8534724801        1.1198353018
 C          9.8709181100       -1.5002139683        1.0178943195
 C         10.2434049979       -0.2341057196        0.6112124227
 C          9.2496729313        0.6798670508        0.2887107241
 C          9.2692532091        2.0510673732       -0.1394413903
 C         10.2889502028        2.9521279397       -0.4132143998
 C          9.9528567495        4.2218347195       -0.8403634210
 C          8.6205095156        4.5914192081       -1.0104589359
 C          7.5881401068        3.7124759727       -0.7441220911
 C          7.9187705611        2.4434855491       -0.2895573298
 C          4.9826987634        2.4090087333        0.6252358467
 C          3.6057502215        2.4111099387        0.6028646537
 C          0.7248819326        0.1577112553       -0.0134408892
 N          1.3333817870       -1.0191733991       -0.0749783396
 C          0.6960562734       -2.1806929230       -0.0934470361
 C          1.4967733722       -3.3754469256       -0.3452045692
 C          2.8101098347       -3.4171013081        0.1270442681
 C          3.6087949041       -4.5142759913       -0.1276105697
 C          3.1153526255       -5.5802870308       -0.8625617973
 C          1.8201023087       -5.5353982332       -1.3545897794
 C          1.0149425337       -4.4415398995       -1.1049071601
 C         -2.8233940893       -3.4057803412       -0.1201490113
 C         -3.6303906176       -4.4934042337        0.1492616121
 H         -3.7783334075       -6.4005933903        1.1137963155
 H         -1.4789955750       -6.3185493828        2.0053235148
 H         -0.0406189581       -4.3839028774        1.5438648630
 H         -3.0948930324       -0.4014359461        1.1699710395
 H         -5.5416848995       -0.3925660525        1.1458324117
 H         -6.5683823817        4.0048952891        0.9157698345
 H         -8.4086539524        5.5653908361        1.4198944555
 H        -10.7467535788        4.9009719185        1.1249967031
 H        -11.3235056239        2.6307500438        0.3320209206
 H        -11.2693136981        0.0328011329       -0.5671510585
 H        -10.5983511666       -2.2199809522       -1.3351278683
 H         -8.2328257769       -2.8163179355       -1.5428541638
 H         -6.4580468808       -1.2043206788       -0.9694322411
 H         -5.5058604448        3.2126157011       -1.1450337946
 H         -3.0643957530        3.2171877243       -1.1113954648
 H         -1.2014968903        3.5155141265       -0.0249964364
 H          1.2198112751        3.5091476531        0.0218258948
 H          3.0957812153       -0.4039382973       -1.1901836574
 H          5.5433002413       -0.3960720622       -1.1760747113
 H          6.4817325791       -1.2385760236        0.9047873246
 H          8.2670252189       -2.8464829894        1.4558476609
 H         10.6284353221       -2.2272111947        1.2704482258
 H         11.2843574083        0.0451346952        0.5484457964
 H         11.3220132676        2.6606168699       -0.2978122568
 H         10.7309234473        4.9386514510       -1.0568612119
 H          8.3893484296        5.5858609102       -1.3628825104
 H          6.5594609393        4.0011284166       -0.8982548006
 H          5.5176785961        3.1820276878        1.1571556884
 H          3.0753453524        3.1903982374        1.1286692703
 H          3.1856656037       -2.5800992600        0.6967936989
 H          4.6219175220       -4.5385785835        0.2468848503
 H          3.7394784931       -6.4393502620       -1.0587585081
 H          1.4373420377       -6.3563946574       -1.9429695954
 H          0.0145419174       -4.4043772055       -1.5098423790
 H         -3.1908333824       -2.5766319202       -0.7063801396
 H         -4.6417024949       -4.5176887012       -0.2299574407
