  93
       -148.45122828
 C         -5.7142868307       -3.1964476515        0.1102366481
 C         -4.8564872453       -2.5966055012       -1.0199161503
 C         -5.6891653969       -2.4714363535       -2.3096352599
 C         -3.6906345835       -3.5262219774       -1.2880953553
 C         -3.9329772453       -4.8280527197       -1.7041554535
 C         -2.9066720040       -5.7121384241       -1.9804932346
 C         -1.5940026621       -5.2901668484       -1.8523258081
 C         -1.3238193435       -4.0053170190       -1.4364318212
 C         -2.3609598268       -3.1136893784       -1.1351262273
 N         -2.0595277035       -1.8372739215       -0.7028547592
 C         -0.6934107791       -1.4799434718       -0.5113762462
 C         -0.0357708297       -0.6976878337       -1.4735799781
 C          1.2750209748       -0.3629706103       -1.2766104124
 C          1.9741936572       -0.7951362317       -0.1350525236
 C          1.3161681468       -1.5901269729        0.8399932784
 C         -0.0306266492       -1.9083878083        0.6161599393
 C          2.0420780669       -2.0337552378        2.0006084044
 C          1.4654910682       -2.8217121664        3.0105829805
 C          2.1883313921       -3.2313607272        4.1030273596
 C          3.5309508762       -2.8708069933        4.2388568211
 C          4.1254278144       -2.1030188741        3.2725667919
 C          3.4037049191       -1.6731525044        2.1475783850
 C          4.0617827270       -0.8719331732        1.1618854361
 N          5.3408608076       -0.5390126281        1.3019205702
 C          5.9585501652        0.2165704452        0.3907231460
 C          7.3283293650        0.5671398385        0.5365013564
 C          8.0826561609        0.1232479708        1.6367775377
 C          9.4008380959        0.4826282777        1.7395463477
 C          9.9516023302        1.2900469267        0.7311735072
 N          9.2739503381        1.7155471465       -0.3000944778
 C          7.9879538479        1.3794562046       -0.4260594813
 C          7.2527134582        1.8529495086       -1.5652531901
 N          7.8761881680        2.6221090052       -2.4624092108
 C          7.2170000438        3.0577628813       -3.5016543257
 C          5.8663378432        2.7631086328       -3.7423418039
 C          5.2024265234        1.9756243061       -2.8369646957
 C          5.8860135736        1.4931984212       -1.7092643808
 C          5.2312677445        0.6745581772       -0.7429305989
 N          3.9545449998        0.3319648142       -0.8873739302
 C          3.3415477108       -0.4286450392        0.0243261187
 C         -3.0356217875       -0.8954450498       -0.4374910642
 C         -2.6509562507        0.3699112373        0.0146409066
 C         -3.6149544038        1.3269840892        0.2606323275
 C         -3.5672428144        2.6849830569        0.7272898436
 C         -2.5297824200        3.5401706912        1.0698950016
 C         -2.8386891357        4.8280423901        1.4627306111
 C         -4.1592843315        5.2680958854        1.5001784132
 C         -5.2090304581        4.4341449242        1.1625957397
 C         -4.9072229744        3.1324023556        0.7913333975
 N         -5.7500606118        2.1140285970        0.3856876643
 C         -7.1484398483        2.1769475561        0.3217909064
 C         -7.8794759011        2.6371400175        1.4133037105
 C         -9.2588231882        2.6958423973        1.3443525825
 C         -9.9195794701        2.2883900601        0.1973880837
 C         -9.1938648580        1.8260191640       -0.8878973670
 C         -7.8136560873        1.7736430247       -0.8327764602
 C         -4.9783577078        1.0192683760        0.0594314662
 C         -5.3620935307       -0.2501116282       -0.3410364857
 C         -4.4008569224       -1.2133833782       -0.5970052891
 H         -6.0686281585       -4.1877557140       -0.1576803787
 H         -5.1223207043       -3.2775751026        1.0197746155
 H         -6.5774532229       -2.5701280689        0.3178877465
 H         -6.0340530968       -3.4454288219       -2.6442544919
 H         -6.5593448147       -1.8405586261       -2.1515921528
 H         -5.0827236138       -2.0324892214       -3.0995881004
 H         -4.9508288453       -5.1689607888       -1.8182157623
 H         -3.1304177326       -6.7185537823       -2.2991935554
 H         -0.7790191456       -5.9614428480       -2.0768261034
 H         -0.2998083689       -3.6792763003       -1.3443338709
 H         -0.5741299450       -0.3725894851       -2.3509772434
 H          1.8112009268        0.2367960250       -1.9954346229
 H         -0.5787127065       -2.5076308082        1.3262299641
 H          0.4310458180       -3.1183661091        2.9368688411
 H          1.7167038092       -3.8368945369        4.8632195241
 H          4.0926943943       -3.1973838187        5.1012495823
 H          5.1607004677       -1.8085308632        3.3490776364
 H          7.5942073636       -0.4954602870        2.3756943441
 H         10.0092346382        0.1591013621        2.5698275113
 H         10.9886042196        1.5970222965        0.7742235484
 H          7.7782524101        3.6763155426       -4.1902629114
 H          5.3718411241        3.1513376297       -4.6192548419
 H          4.1621139573        1.7105477517       -2.9586750244
 H         -1.6106620972        0.5991476391        0.1779549657
 H         -1.5055694474        3.2025420094        1.0241298770
 H         -2.0473218633        5.5094662426        1.7362584120
 H         -4.3689053425        6.2853653265        1.7957356379
 H         -6.2276074954        4.7911822700        1.1775346846
 H         -7.3621325482        2.9314891481        2.3140426713
 H         -9.8210205246        3.0528555799        2.1943372236
 H        -10.9969378670        2.3319741985        0.1490365761
 H         -9.7048735843        1.5128544690       -1.7862332259
 H         -7.2427018467        1.4385730794       -1.6859113296
 H         -6.4103815788       -0.4843539816       -0.4371118090
