80
 energy: -125.459996827940 gnorm: 0.000073588765 xtb: 6.7.1 (edcfbbe)
C            1.21765415573304        4.73095709411733       -0.23121973913633
C            0.56434829749715        3.51623604683460        0.35630139473589
C           -0.79467164800427        3.47313445905994        0.42740645588872
C           -1.54362465622747        2.31126974545126        0.77553753444829
C           -2.96625026110318        2.35967347146927        0.69742423812110
C           -3.66159913803375        3.56491285250298        1.00102759537800
C           -5.02860881057206        3.64528208869434        0.91331903795436
C           -5.78337746445335        2.55406623876505        0.49311203528323
C           -5.11883315125912        1.36498168316397        0.15780100333937
N           -5.86982387438772        0.27054161558041       -0.31561539013078
C           -6.75994796615767        0.31145353677574       -1.37140024777061
C           -7.08915299740591        1.37052522143622       -2.20632117309029
C           -8.00705214354624        1.13517042431157       -3.21232349809851
C           -8.58056286842733       -0.12194831064309       -3.39563285206903
C           -8.24042508282422       -1.18543900247307       -2.58175529213649
C           -7.32077969135368       -0.97232052539867       -1.56339131864295
C           -6.73273179696291       -1.82294999181279       -0.56503482119946
C           -6.88602013973905       -3.15932497270848       -0.24517649170801
C           -6.15098633989868       -3.67230027947539        0.82414184911085
C           -6.27711460101869       -5.03220106910333        1.16779113401374
N           -6.37985652612044       -6.14267854387569        1.44728601988860
C           -5.28872800611791       -2.85053611438053        1.57311890726026
C           -5.13038373652237       -1.51919576660049        1.26174067464453
C           -5.84008455158472       -1.00671262267006        0.17989168929659
C           -3.75005333445216        1.26241940953779        0.26893361585317
C           -0.77758371254192        1.13730482488683        1.13416074737534
C           -1.43272168540597       -0.08355900192384        1.70602374135251
C            0.58146342234523        1.18165376694532        1.06857401183467
C            1.33080323436498        2.34828589356403        0.73556469701936
C            2.74985879262063        2.31986167674841        0.85012063290839
C            3.51726639282002        3.44587629213102        1.26041764821237
C            4.88506575933557        3.38213873168881        1.35495346426497
C            5.57220185636248        2.20911894533587        1.05506524159380
C            4.83692713925163        1.07970952636150        0.66170079983926
N            5.51494039673055       -0.11676579891111        0.36194775930521
C            5.23197414452093       -1.35869584694137        0.89817770545621
C            4.28639702360747       -1.71473329950263        1.84989842406109
C            4.22840854567794       -3.04041860921783        2.23621216587287
C            5.09072502516961       -3.99381091922260        1.69775739962907
C            6.04899944171924       -3.64186754054271        0.76666312733180
C            6.12594587401943       -2.31506486686060        0.36423945129478
C            6.98582804794147       -1.60310070192765       -0.54170641097218
C            8.03468705145332       -1.98797419275416       -1.35586848536101
C            8.65661835897110       -1.01347047903995       -2.13756315625875
C            9.73288931827587       -1.37208352145180       -2.97187758517877
N           10.61315821916864       -1.66472470986519       -3.65108688871334
C            8.22101568404393        0.32405987387093       -2.11402969131050
C            7.17562538098837        0.71597361200007       -1.30853642478281
C            6.56736633217292       -0.24615334276993       -0.50686189705136
C            3.46460232850728        1.12728159745269        0.57507919104059
H            1.40083382869742        5.48483284107665        0.53586227189912
H            2.16324345952153        4.48082963944282       -0.70495971679300
H            0.56177741751900        5.18115380660570       -0.97468259073939
H           -1.34897428963535        4.33743381074759        0.09095015170073
H           -3.10263465321862        4.41367606398322        1.36290243310306
H           -5.53130544839437        4.56455804174423        1.17752725501996
H           -6.85879591437284        2.60800925773301        0.43463552957882
H           -6.63729602643244        2.34247294512633       -2.07986403047743
H           -8.28349513311418        1.94248788031295       -3.87430531492290
H           -9.29460634364135       -0.26506715095005       -4.19299420766032
H           -8.67503831925580       -2.16204729189180       -2.73279046982411
H           -7.55720632192887       -3.79645408901968       -0.80138242634768
H           -4.74988856935501       -3.28195581752326        2.40375716051293
H           -4.48023669985230       -0.88960095196814        1.84750903391712
H           -3.26803947189826        0.35599444429536       -0.05780385991627
H           -1.67958508954049       -0.80233210246584        0.92340055213505
H           -2.34342331779242        0.18060962013032        2.23766611661412
H           -0.75567379035515       -0.58037152446906        2.39875264629773
H            1.13247741929782        0.31229497538425        1.39638731121739
H            3.00854534514624        4.34430261874275        1.56560291428053
H            5.44085597830431        4.24771743570992        1.68534069724442
H            6.64375714941012        2.14884390952270        1.15984868598744
H            3.62736184432334       -0.97863700626985        2.28371095042731
H            3.50058894285699       -3.34477405468068        2.97382767859910
H            5.01156501456605       -5.02060011157164        2.02248378031413
H            6.72697734941254       -4.37800004634710        0.36200374600055
H            8.36961944948458       -3.01364876969319       -1.39403852286073
H            8.71949008217029        1.04449427790707       -2.74569985914921
H            6.83506155152884        1.73975638177596       -1.30660117100247
H            2.93362357177947        0.25763067306255        0.21980742439599
