80
 energy: -125.568839171425 gnorm: 0.000146340710 xtb: 6.7.1 (edcfbbe)
C            1.28723769961866        4.31244754390285       -0.87431007092717
C            0.58033671807733        3.31089857192551       -0.00956821411073
C           -0.80588873798405        3.27257315790435       -0.00624431399546
C           -1.52575138577248        2.34994052844650        0.74431590828276
C           -3.00073818397895        2.38998344169890        0.67762418870441
C           -3.67980023297975        3.55571002405941        1.02244558029954
C           -5.05969543505137        3.61329896286242        0.94437686313034
C           -5.78254734496408        2.51592899904654        0.51146355697545
C           -5.11133191537068        1.35410194623396        0.14447607358529
N           -5.83887031537734        0.24301385431469       -0.32473844787609
C           -6.76598135642302        0.26797526644466       -1.35056645529563
C           -7.15852124689453        1.32461489370917       -2.16012229563061
C           -8.10089770596308        1.07024750440839       -3.13817177854305
C           -8.64019004468805       -0.20268464291848       -3.31750607678436
C           -8.23783189986696       -1.26258182520531       -2.52960226388248
C           -7.29017607649858       -1.03086354579902       -1.54024475829669
C           -6.64047415580332       -1.87391418028271       -0.57518593223651
C           -6.73843389113662       -3.21972665294321       -0.27041914661589
C           -5.94994975300921       -3.72246962628795        0.76364207532920
C           -6.02244378298073       -5.09005702377926        1.09325328504958
N           -6.08125203486291       -6.20603094563460        1.36216011600170
C           -5.08801390110801       -2.88396326508886        1.49345646520302
C           -4.98565548101761       -1.54316103130505        1.19905606545839
C           -5.75039129142126       -1.03917092066612        0.15124828347496
C           -3.72617460588343        1.29134340146377        0.23169689060609
C           -0.83812200472499        1.42666861442550        1.53578160397447
C           -1.55083352223771        0.42353741469060        2.39397059065629
C            0.54745948294881        1.46557313330444        1.53372929217849
C            1.26833111601503        2.38975424066067        0.78501013774862
C            2.74208758388499        2.35757329566471        0.86351674803556
C            3.47232666950460        3.47911974680077        1.24792449392112
C            4.85159657069067        3.42090236390010        1.33690031033372
C            5.52510846455846        2.24740412599376        1.04717726499579
C            4.80416749864618        1.12119943779519        0.66453040212547
N            5.47617540165535       -0.08096752306055        0.36872995170582
C            5.20907061780297       -1.31245248424142        0.93715309600569
C            4.28485393683980       -1.65111397964291        1.91517552181559
C            4.23782868322563       -2.96884276034412        2.32800556798899
C            5.09098062209582       -3.93138337079512        1.79039088734809
C            6.02587974574745       -3.59692542388115        0.83107181742190
C            6.09085770576464       -2.27761149371602        0.40004754489833
C            6.92495863629338       -1.58343224024618       -0.54156154848705
C            7.95192453809661       -1.98402376758137       -1.37718890600681
C            8.55011691747137       -1.02630112434731       -2.19492350042511
C            9.60331842406484       -1.40190409220066       -3.05158667503190
N           10.46511858450602       -1.70827500403744       -3.74769450296067
C            8.11466952836974        0.31126727155045       -2.18616717897565
C            7.09342856721603        0.71963579002923       -1.35839702982654
C            6.50665735209113       -0.22634924939183       -0.52289071353911
C            3.41916417434079        1.17760098174506        0.57617068273632
H            1.39522156140433        5.26139261935145       -0.34840791294908
H            2.27851537879025        3.96310463851648       -1.15243394506150
H            0.71189112027149        4.49983838185767       -1.77881840288098
H           -1.35077437903832        3.97393685723131       -0.62313565480481
H           -3.11900882108110        4.41290578641759        1.36448789737925
H           -5.57874907619496        4.51730250596657        1.22682112247529
H           -6.86043076615665        2.55035069160734        0.46247301712128
H           -6.73627851719662        2.31025560255876       -2.03772151387955
H           -8.42560501881023        1.87560920611576       -3.78047171818791
H           -9.37683936254387       -0.35958860002163       -4.09140477764837
H           -8.64547713052052       -2.25129818467195       -2.67744255558297
H           -7.40765890950828       -3.87061672151377       -0.81292854759228
H           -4.50544832913061       -3.31001672957780        2.29710458507682
H           -4.33586224103168       -0.90173918593584        1.77246937456227
H           -3.21089541305836        0.39456429498951       -0.07793893713988
H           -1.69604104442727       -0.50916554743260        1.84758511087780
H           -2.52391250128202        0.79791083199279        2.70406356678771
H           -0.96200188553696        0.19882294758884        3.28101757236783
H            1.09011340793699        0.76512203696579        2.15333416308457
H            2.95396684421067        4.39275670922584        1.49444785455317
H            5.40887496808733        4.29408097008791        1.64235727713132
H            6.60029315217147        2.19419806375583        1.13026234342204
H            3.63244648946319       -0.90850334107941        2.34748384883136
H            3.52657699326754       -3.26008438528904        3.08689281786147
H            5.02172207625837       -4.95134826295873        2.13833379135102
H            6.69556676339581       -4.33982605402338        0.42469739815540
H            8.28643420674593       -3.01031316288188       -1.40353132135949
H            8.59511586335489        1.01905826100170       -2.84558207526208
H            6.75431130622142        1.74391849422635       -1.36581213328580
H            2.86744398432473        0.30457559070595        0.25948714656477
