80
 energy: -125.458862136380 gnorm: 0.000138363210 xtb: 6.7.1 (edcfbbe)
C            1.25401416430760        4.39066385242882       -0.82015942267030
C            0.56283654311957        3.34240272932852        0.00059990592201
C           -0.82162648908511        3.30122782796875        0.01781367138867
C           -1.53785222491561        2.33350032593087        0.71819802977856
C           -3.00930431460290        2.38218862785686        0.66518312947438
C           -3.67583987231411        3.57118504819774        0.97972856997857
C           -5.05595023128987        3.64492330998281        0.89967342896661
C           -5.79502998866952        2.55201639154256        0.49120632778197
C           -5.13900619900087        1.36179494850303        0.15642659054215
N           -5.87478922853519        0.26066718153476       -0.28599546357332
C           -6.85109008965055        0.29160212562865       -1.26320933961836
C           -7.28917560844652        1.35712041319572       -2.04053198152123
C           -8.27351812960228        1.10705744245020       -2.98513023086041
C           -8.80025800944865       -0.16562186040433       -3.16236062420697
C           -8.34198263120961       -1.24177851278581       -2.41033433298627
C           -7.35986491911910       -1.01430963418970       -1.46260082704716
C           -6.64677175954125       -1.87619323599398       -0.55070004476226
C           -6.71413839378529       -3.22084186375656       -0.28121667788148
C           -5.86619543176693       -3.75144973637176        0.71837402983781
C           -5.90530567039153       -5.11266339379731        1.01184352687682
N           -5.93659930264152       -6.24493096568655        1.25417391275253
C           -4.98975292743756       -2.89745113388751        1.44182389256758
C           -4.92537076679975       -1.55343976436808        1.17393671570063
C           -5.73426553648374       -1.03837321895265        0.15625008716167
C           -3.75105481797612        1.28211595558961        0.25754024762295
C           -0.83744385521082        1.36391325754319        1.44556028746827
C           -1.53028436497406        0.31763441824207        2.26733417286241
C            0.54665731994516        1.40592527361017        1.42958431147261
C            1.26336257987537        2.37552000774458        0.73226525040823
C            2.73352234629308        2.34339754475373        0.80852095920677
C            3.46784974600693        3.47067559552464        1.19138109205812
C            4.84878885782362        3.41135823769748        1.27591231500938
C            5.52305542448876        2.24162881047761        0.98585809390187
C            4.79916116338749        1.10314664585079        0.61095420669398
N            5.46767105521845       -0.08744494785608        0.32458889235350
C            5.13861023748382       -1.33394361389276        0.82229324338079
C            4.13290112160643       -1.69300083984079        1.71143928161202
C            4.03922314544344       -3.02721038406462        2.07926717511920
C            4.92674073945939       -3.97633163158028        1.59005079192180
C            5.95623226511466       -3.61689335066286        0.72667920108200
C            6.06663686858855       -2.29106929043841        0.34670912081560
C            7.00419633610482       -1.57569100484805       -0.48564720149283
C            8.09892724354108       -1.96549901637039       -1.21587811364982
C            8.80053406490524       -0.98426040380345       -1.95561987411452
C            9.92023753211387       -1.34427985928776       -2.70125973823315
N           10.85345171398844       -1.64345660275002       -3.31926715489816
C            8.35440231994524        0.36610825299705       -1.95759338140186
C            7.25707959433242        0.75400965125503       -1.23162143615963
C            6.59109004875826       -0.21029085692239       -0.46689040886581
C            3.40919692479606        1.16320144308666        0.52944692759929
H            1.34505157145412        5.31897873076255       -0.25548874352419
H            2.25034175517073        4.07027497189190       -1.11399843966259
H            0.67493822991082        4.60627372980034       -1.71611277289931
H           -1.37178474626944        4.03524783882816       -0.55455530847136
H           -3.10427823666465        4.42836559469701        1.30173316944333
H           -5.56170563142693        4.56186175942692        1.16395879172287
H           -6.87261195045641        2.59572910466918        0.45697584124818
H           -6.86992078223934        2.34460645504310       -1.92873012730670
H           -8.63317624492017        1.92014355265796       -3.59759868989198
H           -9.56827865116841       -0.32447528128238       -3.90429473524021
H           -8.73879512242652       -2.23338368856733       -2.56475929852652
H           -7.39809345973257       -3.87233286572944       -0.80391428307349
H           -4.37824646950501       -3.33046828066237        2.21940471708337
H           -4.27693129128262       -0.91084976455620        1.74714915572888
H           -3.24974685270488        0.37440476213685       -0.04133632499817
H           -1.66274152327354       -0.59753253701480        1.68897584102107
H           -2.50663052943377        0.66454814991916        2.59804179241380
H           -0.93266510061073        0.07024161219116        3.14257264855421
H            1.09438803752839        0.67393360052817        2.00643298870208
H            2.95064666178939        4.38263933822302        1.44331021528726
H            5.40581749692695        4.28433362335466        1.58227117406956
H            6.59598234689760        2.18351467968202        1.08479146987439
H            3.45530514758572       -0.95972484085010        2.11829359010678
H            3.26214404402935       -3.33123777530521        2.76433905476738
H            4.82398202001423       -5.00700462732741        1.89451277279696
H            6.65792658076193       -4.35306011615103        0.36594642119906
H            8.42768788885423       -2.99338990493115       -1.24354397877302
H            8.89538627170132        1.08327315970075       -2.55670731227637
H            6.91156814881785        1.77567939412829       -1.26425395468624
H            2.85786595672779        0.29622132484350        0.19707869817942
