  97
       -148.20863832
 C          1.9880974700       -0.6970186729       -2.7818108027
 C          2.2286238992        0.8057486991       -2.8461871050
 C          0.9238769075        1.5849260979       -2.9950772085
 C          1.1556655319        3.0915896198       -2.9069827807
 C         -0.1578270053        3.8697986391       -2.8822941530
 C          0.0161053905        5.3671662133       -2.6158327411
 C          0.6857084449        5.7337880647       -1.2895546843
 C         -0.1110973478        5.3625173346       -0.0365327479
 N         -0.1037546440        3.9449810511        0.2348179401
 C         -1.2717002283        3.1888068124        0.2685680499
 O         -2.3848908705        3.6808146800        0.1555805814
 C         -0.8324334060        1.8117324431        0.4690092088
 C         -1.4333727651        0.5364541286        0.5454965953
 C         -2.7718445788        0.1156531428        0.4928385898
 C         -3.1060979443       -1.2566702303        0.6277308559
 C         -4.4040460548       -1.6817379728        0.5685087795
 C         -5.4467578986       -0.7609512425        0.3821669542
 N         -6.7652656816       -1.1911644261        0.3210136647
 C         -7.2332142096       -2.2672621412       -0.4098613516
 C         -6.5510429832       -3.1158238121       -1.2716696069
 C         -7.2751875653       -4.1044268729       -1.9125421931
 C         -8.6466838192       -4.2422386402       -1.7177789347
 C         -9.3383463971       -3.3777541492       -0.8880441988
 C         -8.6321961106       -2.3810275670       -0.2327843286
 C         -9.0188946471       -1.3175981524        0.6568896292
 C        -10.2301118387       -0.9328551595        1.2106387561
 C        -10.2480805175        0.1457002476        2.0769183444
 C         -9.0752564749        0.8195008229        2.4069358038
 C         -7.8559302375        0.4525827175        1.8677741109
 C         -7.8367663214       -0.6067008299        0.9700570843
 C         -5.1336404968        0.6023254900        0.2573140642
 C         -3.8366745752        1.0319673693        0.3036101485
 S         -0.1498836338       -0.6693637744        0.7317574311
 C          1.1470683291        0.5338965948        0.6884058069
 C          2.4866673190        0.0999573195        0.6938578468
 C          2.7950212880       -1.2810553262        0.7484937821
 C          4.0871638552       -1.7236837308        0.6791440201
 C          5.1458628766       -0.8101605193        0.5720899430
 N          6.4555787307       -1.2633439444        0.4855833879
 C          6.8992875976       -2.2885802888       -0.3278467819
 C          6.2029058147       -3.0336004399       -1.2700039629
 C          6.9031615880       -3.9885397370       -1.9838901857
 C          8.2652649793       -4.1931574848       -1.7807868398
 C          8.9718353032       -3.4300368454       -0.8687122610
 C          8.2897319061       -2.4675061688       -0.1403479057
 C          8.6961947946       -1.4989695245        0.8437191432
 C          9.9090627098       -1.2081867589        1.4491517352
 C          9.9481678212       -0.2087787875        2.4048907789
 C          8.7942446086        0.4792190173        2.7701100115
 C          7.5736137976        0.2053755453        2.1809201150
 C          7.5340990889       -0.7742950787        1.1978721960
 C          4.8594699747        0.5629718147        0.5522741352
 C          3.5669663323        1.0099841612        0.6052192894
 C          0.5668460606        1.8086589441        0.5678728337
 C          1.0340175390        3.1977119396        0.4785359960
 O          2.1477580883        3.6793285832        0.6204169316
 H          2.9311785769       -1.2300430101       -2.6813485366
 H          1.4883197971       -1.0470199625       -3.6828366127
 H          1.3644734020       -0.9407354905       -1.9261762100
 H          2.7273509391        1.1226253927       -1.9306707201
 H          2.8891362437        1.0360672889       -3.6851809943
 H          0.2430673856        1.2840864461       -2.1992048227
 H          0.4510067480        1.3349234186       -3.9474307978
 H          1.7622525868        3.4226462791       -3.7530771432
 H          1.7193844643        3.2913489373       -1.9995615470
 H         -0.8159802088        3.4425670557       -2.1305987030
 H         -0.6579238878        3.7538469348       -3.8479688807
 H          0.6163291034        5.7986271521       -3.4209215935
 H         -0.9696388812        5.8369643205       -2.6502438953
 H          1.6666403699        5.2708057121       -1.2222168392
 H          0.8279620174        6.8162451811       -1.2725002603
 H         -1.1598865876        5.6425543863       -0.1483377946
 H          0.3167309422        5.8876593401        0.8237333336
 H         -2.3140037826       -1.9702765612        0.7968804837
 H         -4.6400377418       -2.7257050665        0.7085973641
 H         -5.4934311168       -3.0003885231       -1.4521910597
 H         -6.7646666889       -4.7790958054       -2.5831293356
 H         -9.1771966960       -5.0276245298       -2.2341752136
 H        -10.4055363792       -3.4699916609       -0.7564724750
 H        -11.1359632996       -1.4695104980        0.9736991385
 H        -11.1812695213        0.4642189953        2.5158655510
 H         -9.1156767772        1.6435877022        3.1030654029
 H         -6.9494441039        0.9653187612        2.1495387492
 H         -5.9281315989        1.3098527513        0.0780665742
 H         -3.6078978908        2.0764272959        0.1833181124
 H          1.9888814972       -1.9912805001        0.8493789013
 H          4.3049504570       -2.7788140259        0.7429593126
 H          5.1528394143       -2.8654629091       -1.4525188523
 H          6.3815774812       -4.5841144717       -2.7180222709
 H          8.7766877247       -4.9501896483       -2.3553341475
 H         10.0323658385       -3.5730555509       -0.7292052283
 H         10.7996159425       -1.7565003434        1.1828062623
 H         10.8829142541        0.0351041281        2.8862496464
 H          8.8505564017        1.2400658356        3.5338763392
 H          6.6810962598        0.7276502309        2.4885088229
 H          5.6695601106        1.2677648338        0.4479859047
 H          3.3581096872        2.0653319089        0.5687277816
