81
 energy: -144.231836632906 gnorm: 0.000028722978 xtb: 6.7.1 (edcfbbe)
F           -9.82975447755145        2.04130828098918        0.87497219938690
C           -9.15210642275314        1.77507414639969       -0.25806285874948
F           -9.48039137385775        0.52649155353773       -0.61103097590301
F           -9.67453727460936        2.58615903680844       -1.19754543982594
C           -7.67343599572410        1.98325962357317       -0.09260801504982
C           -7.23608928771391        3.27691120010827        0.25635942101514
C           -5.90287999505277        3.53387440820796        0.41097073415891
C           -4.96520271780871        2.50082918353438        0.21957474544642
N           -3.64554471070391        2.76483115462425        0.27737604623171
C           -2.79832191683498        1.78002362616090        0.11112978384992
C           -1.37263580743102        2.11093633887217        0.06198475343238
C           -0.85646632647081        3.06110453373224        0.94116794548857
C            0.49840034874622        3.32026254377866        0.97810486471026
C            1.36062715164187        2.64196134116883        0.12063633617038
N            2.75287859617810        2.84123486418409        0.18881518329808
C            3.32526471350793        4.07991476381167       -0.10989568560691
C            2.56301843831217        5.18270280108844       -0.47251944412111
C            3.16677896037891        6.39572196915262       -0.76761224750902
C            4.53980936640409        6.52313441346252       -0.71433873114720
C            5.31657789236874        5.42270217394540       -0.38272934304165
C            4.72054365594553        4.21003402090131       -0.09133341261190
O            5.55627494563257        3.15736096231635        0.19047505032529
C            4.97626085103610        1.96239993938141        0.53533494523671
C            5.82365497190127        0.92787770835221        0.88641852136113
C            5.30693237766160       -0.29682174071251        1.28281979254458
C            3.93972200415893       -0.47152373750366        1.34480692553083
C            3.08544839330759        0.56008104389810        0.98647259915101
C            3.58736229204386        1.78071990844456        0.55319589281561
C            0.83945414116496        1.74142947857534       -0.80685875550290
C           -0.51262672155411        1.47910478903276       -0.83787050733108
C           -3.26453575225337        0.42410455086210       -0.02006785458923
C           -2.34170675996444       -0.71281322292684        0.00774090147676
C           -1.26041399848492       -0.74653974968382        0.88982510428399
C           -0.35406332963380       -1.78282954912186        0.83786467566220
C           -0.51029449835176       -2.80831316828983       -0.09304340673671
N            0.46639546388573       -3.81879748146158       -0.18362593347555
C            1.76801230523376       -3.49091828409169       -0.57300004630324
C            2.11114905742434       -2.21683962913448       -1.00726146656732
C            3.41106072132341       -1.92385666489512       -1.39050398659771
C            4.38506926182416       -2.90028928414168       -1.35268617335175
C            4.05044587656052       -4.18646318901455       -0.95529551957557
C            2.75410348930202       -4.48596834492518       -0.57939454715012
O            2.48678452550904       -5.78705140925142       -0.23465765881359
C            1.18673701593050       -6.10788096310746        0.07096202066214
C            0.91973744275293       -7.43277540606331        0.36082085045560
C           -0.36197448385565       -7.82749748768655        0.71543669538763
C           -1.36727539315823       -6.88534524574025        0.79298350915048
C           -1.10621290666192       -5.55541130422926        0.49946341991239
C            0.16488997340004       -5.14981938259742        0.11429551213131
C           -1.62161266660209       -2.81060933326805       -0.93186348662037
C           -2.53179642776460       -1.77494735151635       -0.87421377423725
N           -4.54016333461010        0.16918055058129       -0.16950003036956
C           -5.41651273011808        1.18911942218977       -0.09319353527735
C           -6.79175199718577        0.94797259301128       -0.26628117645747
H           -7.96973504468860        4.05698128718796        0.39163501925087
H           -5.54054964515027        4.51721525516895        0.66447296947156
H           -1.53102956683532        3.56616146697682        1.61505400369726
H            0.90047511542280        4.03055657756423        1.68507074023498
H            1.49010687703291        5.09127156577195       -0.53660502655311
H            2.55030217750377        7.23739240626289       -1.04319210938038
H            5.01389332970601        7.46536210504253       -0.93898099208610
H            6.39268445467160        5.48294647934839       -0.35254091774500
H            6.88674523946695        1.10382292448136        0.84810004021247
H            5.97466942125510       -1.10005323770498        1.55010689687418
H            3.52627778434637       -1.41318440476942        1.67071498774607
H            2.01788627703883        0.41588756395223        1.04484161365476
H            1.50826268587926        1.24760490403701       -1.49608922013990
H           -0.90833275927062        0.79414529708935       -1.57291378177677
H           -1.14052575598094        0.03295095100794        1.62748319098453
H            0.48846009337414       -1.80688876744730        1.51300226644010
H            1.35507551294261       -1.44826513870726       -1.04677513806508
H            3.65519698553980       -0.92493655444935       -1.71684156799461
H            5.39945092438207       -2.67388053190411       -1.63955214184894
H            4.78307328445323       -4.97732049246694       -0.93537655674471
H            1.73207153658686       -8.14002735891049        0.31109963522039
H           -0.56084984968337       -8.86365920816263        0.93866623084138
H           -2.36483119797475       -7.17369591107357        1.08638701940630
H           -1.89634930912460       -4.82573081299574        0.58217581282968
H           -1.75190879291796       -3.61457421608347       -1.64081629133592
H           -3.38564822981120       -1.75660434932539       -1.53359001433956
H           -7.11996247490676       -0.04798979519013       -0.51854608559315
