81
 energy: -144.186067899419 gnorm: 0.000072283533 xtb: 6.7.1 (edcfbbe)
F           -9.00063324602937       -0.99428613706075        0.61191025431236
C           -8.80461949783940        0.12295354089868       -0.11576108374683
F           -9.09571168165395       -0.22238081148499       -1.38993464290831
F           -9.76187312631961        0.98525722593821        0.25878979103415
C           -7.41883762742094        0.66802438901918        0.02468152362295
C           -7.20365423421411        2.01518586209142        0.27411900547313
C           -5.91102000506251        2.49901974706240        0.37513113433182
C           -4.81354742976798        1.65096832451130        0.22757034099695
N           -3.55815952062847        2.09644509883888        0.27769002345545
C           -2.52112418776329        1.27349944172722        0.13176593213848
C           -1.17375031954672        1.83537579470426        0.10314246323567
C           -0.80650077509172        2.82576715269195        1.01464107648524
C            0.49163160556343        3.29352806453629        1.05862568842386
C            1.44119033787803        2.78941549432690        0.17639291466491
N            2.79516818338378        3.19439861384369        0.25617848383263
C            3.18582128983078        4.48450942870328       -0.08878392545570
C            2.27112516509184        5.45839069924441       -0.47292759629265
C            2.69722390128584        6.73336602774499       -0.80724586810681
C            4.04094102836763        7.05417878905780       -0.77098548791747
C            4.96815212590566        6.08756695929248       -0.41289036903034
C            4.55035433780206        4.81182420275850       -0.08022008865338
O            5.52233475551384        3.89668672899572        0.23455770182500
C            5.11791347853289        2.63997957668529        0.60063726764240
C            6.10170550037995        1.73400961223412        0.95419366799783
C            5.75836785854947        0.45479368603484        1.36376747355651
C            4.42685471892661        0.09346281672827        1.43429922757784
C            3.43667525901998        0.99276755057903        1.07518489166488
C            3.76512481289327        2.26938285742097        0.63216458101863
C            1.06390712591128        1.85724555331887       -0.78703391043223
C           -0.23002873614726        1.38826708476605       -0.82620291945199
C           -2.74699428446517       -0.11124935419334       -0.00469539278838
C           -1.63933520350610       -1.06627215405312       -0.01271657887014
C           -0.58840520482200       -0.94727735332450        0.90014900912363
C            0.49405705050748       -1.79587118950766        0.83119807094301
C            0.54443073411405       -2.78610559958998       -0.14648082806445
N            1.70210063256845       -3.59324708714977       -0.25638803334188
C            2.90491264462802       -3.01480888897725       -0.65172881178947
C            2.98412865554388       -1.69456394606690       -1.08120752670197
C            4.19834038994080       -1.14737077975165       -1.46125613769319
C            5.35024293363506       -1.90913351888378       -1.42512823511675
C            5.28368511481369       -3.23595986282384       -1.02875825953941
C            4.07332470416844       -3.79149128555762       -0.65444941054633
O            4.07083747479947       -5.11541420051926       -0.30260402159919
C            2.86817563308898       -5.68263614912576        0.03399173969235
C            2.87197349953690       -7.02810165793553        0.35417010369006
C            1.69648307998031       -7.65842726793853        0.73251306210630
C            0.52221141933412       -6.93295322600165        0.80119193160333
C            0.51021679106494       -5.58565022881629        0.47948021877870
C            1.67568451899004       -4.94423768245133        0.07592320701426
C           -0.52901103726534       -2.95636101739318       -1.01374499507635
C           -1.61549142773462       -2.10711080411297       -0.94014585254270
N           -3.98798022704253       -0.57152100862008       -0.10454142868056
C           -5.04420977393631        0.24570810982812       -0.01562218366934
C           -6.34959457040849       -0.21589244146067       -0.12107246886312
H           -8.04172566558346        2.68441488910858        0.38815157766035
H           -5.72659950772914        3.54518141086802        0.55854667684115
H           -1.54462367815192        3.19883494578652        1.70770559900476
H            0.78209809311915        4.03429549613389        1.78901138007601
H            1.22201175092646        5.21209855146732       -0.51720734380194
H            1.96840736040515        7.47323774111621       -1.09941877425097
H            4.37483650518953        8.04683799608478       -1.02767650128445
H            6.02457864785489        6.30176451778940       -0.39135415117802
H            7.13065826494469        2.05236907459308        0.90647551206417
H            6.53066683291002       -0.24743235334320        1.63347112575307
H            4.15079517832726       -0.89431174925991        1.76893366583127
H            2.39877579994491        0.70613384461933        1.13651724516020
H            1.79728371901380        1.50501924096881       -1.49759533228890
H           -0.51949330952160        0.67577600052023       -1.58380791809234
H           -0.62794565898788       -0.18878966589187        1.66735943422843
H            1.31314603383626       -1.69892684066201        1.52862916185580
H            2.08762727511410       -1.09603988731867       -1.11558331666451
H            4.23905735486183       -0.11911183990416       -1.78516173712255
H            6.29770828960384       -1.48174478529970       -1.71140716693251
H            6.16147644499645       -3.86157675916532       -1.00757049207067
H            3.80710713436654       -7.56257790688426        0.30680276181544
H            1.70773761949712       -8.70802204864607        0.97940405639060
H           -0.39526354775764       -7.40971338215057        1.10909709234380
H           -0.40762144843916       -5.02346125879742        0.54862406240921
H           -0.49678810337351       -3.74098228048183       -1.75523323121833
H           -2.44454417444412       -2.22167074555340       -1.62119572756283
H           -6.52159512610249       -1.26472113505416       -0.30231713118142
