  81
       -144.18022376
 F         -9.0036242178       -1.0084004387        0.5703921041
 C         -8.8075675709        0.1277289321       -0.1280021255
 F         -9.1031701967       -0.1844169379       -1.4100903426
 F         -9.7641899715        0.9801684472        0.2710663016
 C         -7.4218738259        0.6680485916        0.0237065883
 C         -7.2061853691        2.0089290085        0.3055592639
 C         -5.9138598965        2.4909559262        0.4172365837
 C         -4.8154864115        1.6460181830        0.2475013010
 N         -3.5620711278        2.0932074360        0.2977842549
 C         -2.5262874669        1.2741764700        0.1349411232
 C         -1.1810592650        1.8356480958        0.1011541151
 C         -0.8102405782        2.8276784397        1.0110352925
 C          0.4884758429        3.2923206793        1.0535260297
 C          1.4359811202        2.7852020043        0.1702175813
 N          2.7928791639        3.1833639834        0.2510355275
 C          3.1914082474        4.4690131813       -0.0972589921
 C          2.2830730969        5.4450974856       -0.4922133758
 C          2.7171913108        6.7160395654       -0.8301094615
 C          4.0625100417        7.0312312895       -0.7866452026
 C          4.9832854904        6.0631116339       -0.4170219929
 C          4.5576076404        4.7907969661       -0.0803861079
 O          5.5224318228        3.8732663104        0.2470039931
 C          5.1103844723        2.6191762596        0.6113848824
 C          6.0877515305        1.7086349598        0.9717301938
 C          5.7355706291        0.4312015048        1.3786576031
 C          4.4015937290        0.0758060026        1.4397584724
 C          3.4179379526        0.9792555682        1.0746526640
 C          3.7552036774        2.2549815889        0.6344132948
 C          1.0553924974        1.8547537346       -0.7940388974
 C         -0.2388798022        1.3881140499       -0.8312540072
 C         -2.7531732754       -0.1128283534       -0.0144903041
 C         -1.6447752954       -1.0655941130       -0.0225596260
 C         -0.5932727084       -0.9443571305        0.8904757477
 C          0.4914844861       -1.7894250148        0.8207037508
 C          0.5441126025       -2.7791676221       -0.1575363405
 N          1.7051744158       -3.5832113710       -0.2676790934
 C          2.9043629995       -3.0020860374       -0.6666223821
 C          2.9773263015       -1.6835123123       -1.1034240002
 C          4.1888200596       -1.1331879393       -1.4864312887
 C          5.3445849440       -1.8895920973       -1.4466145773
 C          5.2848036522       -3.2141231124       -1.0422143988
 C          4.0770530980       -3.7731144747       -0.6639994556
 O          4.0808766234       -5.0937673923       -0.3021017517
 C          2.8832100573       -5.6618665791        0.0485783007
 C          2.8950188395       -7.0023408678        0.3897193287
 C          1.7239338322       -7.6322384295        0.7814563134
 C          0.5455630792       -6.9118579177        0.8417539674
 C          0.5253534379       -5.5699978909        0.4997365958
 C          1.6869403022       -4.9285574035        0.0840340440
 C         -0.5297660451       -2.9535483654       -1.0237706168
 C         -1.6186979964       -2.1079312208       -0.9492130122
 N         -3.9914048962       -0.5715543183       -0.1214784971
 C         -5.0465707654        0.2460188841       -0.0247856916
 C         -6.3523193222       -0.2131602415       -0.1427798092
 H         -8.0444431761        2.6751032509        0.4358452392
 H         -5.7287674977        3.5326919070        0.6236981238
 H         -1.5476542121        3.2027435243        1.7036488721
 H          0.7816222476        4.0330154590        1.7830082998
 H          1.2333601517        5.2024665545       -0.5413458914
 H          1.9939934960        7.4578646621       -1.1309966110
 H          4.4021787839        8.0210797497       -1.0465032868
 H          6.0403771505        6.2731040210       -0.3890285700
 H          7.1184151947        2.0222121718        0.9311093866
 H          6.5025937228       -0.2746653640        1.6537284078
 H          4.1191524314       -0.9108793395        1.7722659931
 H          2.3783435418        0.6978704211        1.1289731182
 H          1.7870695506        1.5029623755       -1.5066768940
 H         -0.5312352894        0.6774922475       -1.5894884261
 H         -0.6349300429       -0.1867797675        1.6584487201
 H          1.3104337647       -1.6910602758        1.5182037814
 H          2.0776857128       -1.0900785045       -1.1410282293
 H          4.2250163875       -0.1066908339       -1.8163433524
 H          6.2897797055       -1.4594951530       -1.7362936708
 H          6.1656002763       -3.8353457576       -1.0176377742
 H          3.8326924494       -7.5327664511        0.3477448834
 H          1.7412431874       -8.6775857636        1.0453142219
 H         -0.3684273856       -7.3890367618        1.1590409491
 H         -0.3949837140       -5.0112071964        0.5619850260
 H         -0.4958662820       -3.7390320197       -1.7643258947
 H         -2.4492286956       -2.2256321546       -1.6277708250
 H         -6.5242603495       -1.2576842983       -0.3471736969
