55
 energy: -92.667304786210 gnorm: 0.000102911856 xtb: 6.7.1 (edcfbbe)
C            6.88441768500563       -1.34397906566897        1.67624751711889
C            6.12019802471089       -2.46160867430140        1.37477502023296
C            4.80601271928410       -2.28362349946944        0.98049637704883
C            4.30968457942136       -0.98455347093954        0.88874272924369
C            2.92438529038972       -0.73526808403881        0.47669187000294
N            1.98631279632649       -1.51876370940171        0.95190729028825
C            0.70326930043747       -1.20789765132598        0.68572158885276
C           -0.34036575724125       -2.02879204500783        1.16058692959469
C           -1.63974510168030       -1.66251679043639        0.96065618620267
C           -1.96289487198302       -0.46433424188693        0.28023944974573
N           -3.31580057385542       -0.11503095356219        0.12342514603224
C           -4.18764194858340       -0.97381881737360       -0.55674306860656
C           -3.74145053754892       -2.11651166157551       -1.21083717372227
C           -4.62975949589311       -2.94840195394904       -1.87529222903953
C           -5.97618217306018       -2.64455868265038       -1.91310999042800
C           -6.43227911596308       -1.48710305790439       -1.30025164369948
C           -5.54935035516489       -0.65471439722886       -0.63590188004565
O           -6.07037500530535        0.48982651871385       -0.08334922195261
C           -5.19516977413636        1.34877528812169        0.53673823507677
C           -5.73426890155262        2.50873655462040        1.06399774261422
C           -4.92839333859385        3.41149602871304        1.74069907160489
C           -3.58502239983953        3.13473045519302        1.89866510890062
C           -3.03978984220689        1.97561441400670        1.36778386050797
C           -3.82630971139442        1.07409233009396        0.66051221448560
C           -0.96203883486127        0.34364500359306       -0.21111789887681
C            0.38218791002075       -0.01860952528898       -0.02697042800021
N            1.36232774093874        0.72737869443590       -0.58222878667598
C            2.60396811137871        0.36209113093962       -0.38119190642192
C            3.66172126791911        1.07527230403667       -1.10652066490763
C            3.61873956742700        2.45980082443144       -1.25759369699582
C            4.64307579878427        3.07980264957031       -1.95126136351691
C            5.65998704157072        2.29902352376332       -2.48038810487828
C            5.59612820984591        0.92586950985585       -2.29379839843361
N            4.62953748882931        0.32289315281548       -1.62628234182778
N            5.03741261038975        0.08840156337166        1.19296028179780
C            6.28746643497703       -0.09578390078556        1.57632042440505
H            7.91316500981530       -1.43588566897083        1.98667131264707
H            6.54158438474123       -3.45364712326829        1.44749545950290
H            4.16463119949758       -3.11581854798374        0.73775612580221
H           -0.08110658149346       -2.92810565059700        1.69685602592916
H           -2.44465418409289       -2.27380199689811        1.34086117786785
H           -2.68968792787385       -2.35576345541456       -1.20776965025681
H           -4.25488856701632       -3.83260458316580       -2.36719962363086
H           -6.67226059689983       -3.28991230731129       -2.42500998196490
H           -7.47346643886469       -1.20711489899473       -1.32924721703130
H           -6.79167746893931        2.68099869551793        0.93899815027030
H           -5.35672002208502        4.31411633721659        2.14662952380403
H           -2.94616286844956        3.81604620218588        2.43911960808165
H           -1.99212966437034        1.76741277241054        1.51606050103699
H           -1.18404949274050        1.24885953129334       -0.75489572846054
H            2.80104614094316        3.01697752157059       -0.82896883893384
H            4.64738864194102        4.15232030538897       -2.07993721604517
H            6.47797652312419        2.74004733630666       -3.02770073955274
H            6.35424939570321        0.26701126729967       -2.69819015842819
H            6.83159632682185        0.80932288630210        1.81553993423829
