  55
        -92.62510834
 C          6.8945615498       -1.3425515210        1.6209650875
 C          6.1074124124       -2.4610433555        1.3944375187
 C          4.7854568367       -2.2837091272        1.0283654070
 C          4.3047378951       -0.9832280587        0.8906196288
 C          2.9170235841       -0.7371592575        0.4845341006
 N          1.9790878650       -1.5157103301        0.9646503036
 C          0.6975882176       -1.2099365496        0.6903523034
 C         -0.3462364261       -2.0267145116        1.1702389038
 C         -1.6455350749       -1.6615423809        0.9673293250
 C         -1.9655794034       -0.4705452800        0.2757631105
 N         -3.3197476714       -0.1188360888        0.1177748190
 C         -4.1917111793       -0.9745707320       -0.5597533977
 C         -3.7459264469       -2.1145609994       -1.2175068220
 C         -4.6365210339       -2.9474744358       -1.8776259570
 C         -5.9834037326       -2.6476689797       -1.9051281580
 C         -6.4388804888       -1.4919750023       -1.2879395016
 C         -5.5548770188       -0.6578401850       -0.6289365546
 O         -6.0732416674        0.4832504384       -0.0710174086
 C         -5.1946282085        1.3443521225        0.5382805466
 C         -5.7273510654        2.5084505829        1.0608730202
 C         -4.9154267466        3.4138517979        1.7271250428
 C         -3.5724863147        3.1353083717        1.8795267950
 C         -3.0323111993        1.9719016400        1.3531711396
 C         -3.8252689511        1.0687147123        0.6563803987
 C         -0.9667420043        0.3309404641       -0.2253297845
 C          0.3776975774       -0.0289183530       -0.0362192224
 N          1.3561878158        0.7129711957       -0.5948279228
 C          2.5971003028        0.3530630578       -0.3873892045
 C          3.6586256533        1.0705551847       -1.1037283636
 C          3.6061586173        2.4548238567       -1.2497818805
 C          4.6388629399        3.0849056472       -1.9205071175
 C          5.6729536585        2.3151570071       -2.4300230981
 C          5.6154746196        0.9402021568       -2.2516667413
 N          4.6411508242        0.3290892728       -1.6086121651
 N          5.0542046464        0.0904374579        1.1282011869
 C          6.3102417835       -0.0915754690        1.4821007353
 H          7.9316833822       -1.4363206385        1.9035081546
 H          6.5190491279       -3.4545686159        1.5017437963
 H          4.1275761471       -3.1167373309        0.8405652189
 H         -0.0884178952       -2.9222722246        1.7133286469
 H         -2.4534734859       -2.2682238623        1.3491948801
 H         -2.6935409722       -2.3503630761       -1.2204583788
 H         -4.2632367575       -3.8300646095       -2.3737423758
 H         -6.6810369821       -3.2948120256       -2.4126793004
 H         -7.4811167554       -1.2165376877       -1.3099039672
 H         -6.7846511386        2.6832115356        0.9417450850
 H         -5.3393844684        4.3202930282        2.1291307387
 H         -2.9297360815        3.8192693641        2.4119529697
 H         -1.9846146097        1.7626707222        1.4966631569
 H         -1.1908822842        1.2298361843       -0.7781284521
 H          2.7759978108        3.0032378052       -0.8349377905
 H          4.6382886294        4.1584812866       -2.0455145348
 H          6.4994456497        2.7668142925       -2.9565001368
 H          6.3890252317        0.2917702648       -2.6433681904
 H          6.8751996499        0.8139612371        1.6641164870
