55
 energy: -92.615253284866 gnorm: 0.000155453370 xtb: 6.7.1 (edcfbbe)
C            6.92805983078928       -1.41118504611902        1.60135467974286
C            6.02170531393350       -2.46268931744132        1.70674952517387
C            4.70833247960503       -2.25448751352994        1.34773475375279
C            4.32761672543871       -0.98758126699244        0.87694855766206
C            2.95786182041154       -0.73254382376597        0.49505846856587
N            1.98356288057420       -1.50486164247629        0.99388633124485
C            0.70324549438782       -1.21495352911178        0.76833720801065
C           -0.33716719702267       -2.00760929995794        1.26929790504264
C           -1.65883085278771       -1.65420712888297        1.07082501024393
C           -1.97852302851195       -0.50482302604773        0.35826535861558
N           -3.33722133935126       -0.14626161112841        0.16464996263077
C           -4.16323898580381       -0.92470797520122       -0.63423320180532
C           -3.69535344988444       -2.04473908859411       -1.31877326400158
C           -4.54996277221141       -2.79890426413599       -2.10256646787831
C           -5.88485321015739       -2.44899248469473       -2.22498737203294
C           -6.36356977509718       -1.32565673405256       -1.57146956285613
C           -5.51374520361179       -0.56385298879020       -0.78639301120290
O           -6.04180967989276        0.54642573851926       -0.18682449641000
C           -5.21093411955001        1.31344677745253        0.58254461354136
C           -5.75758892525806        2.43736861536255        1.17976408855102
C           -4.97483065339256        3.24418061027558        1.98891376885568
C           -3.64722979865899        2.91551686027019        2.20855803097150
C           -3.09325225353520        1.79539967593956        1.61502517994293
C           -3.85814727595358        0.98358747296900        0.77959056864889
C           -0.96723162811942        0.29838973828213       -0.17530949756670
C            0.36504567566423       -0.03652007590009        0.01242766106281
N            1.36277359707915        0.69135383766439       -0.53669740688964
C            2.61900579220260        0.34639109575727       -0.34530642592206
C            3.66279560631606        1.08872490726217       -1.07093889697875
C            3.76544290625868        2.47406458187022       -0.94912583920148
C            4.73821060013944        3.12812412335203       -1.68232491984043
C            5.56001495518040        2.38763198202563       -2.52020964195138
C            5.35504129935257        1.01836777004569       -2.59150162986335
N            4.43348196679910        0.38303814549137       -1.89112273515789
N            5.19848428477354        0.02296871753895        0.80608694641711
C            6.45269404377333       -0.18932074080245        1.15080902369605
H            7.96508362397808       -1.53434411485987        1.86933282358765
H            6.34483952396823       -3.42983569252530        2.06449041184904
H            3.96267500759088       -3.03138611643803        1.41052248167772
H           -0.08016785879898       -2.88854298222246        1.83537026184251
H           -2.44879279848583       -2.26785347373854        1.47705504874433
H           -2.65504504866131       -2.31602854527759       -1.23520177160722
H           -4.16529488990926       -3.66357664518530       -2.62038005603191
H           -6.55147067327653       -3.03944790731553       -2.83298405937918
H           -7.39321800531477       -1.01741163650778       -1.65844737130400
H           -6.79775578761541        2.65733726282389        0.99995190806216
H           -5.40511214314723        4.11883356906396        2.44986034368501
H           -3.03404295064969        3.53031276307877        2.84877247519642
H           -2.06165434840724        1.54003291501999        1.79718048843678
H           -1.21020515676140        1.17289065305813       -0.75834587840054
H            3.09816970846972        3.00612625692117       -0.28927735689681
H            4.85371940271554        4.19951947428709       -1.60399622152487
H            6.33427145205786        2.85824589119450       -3.10531196482981
H            5.95303449244902        0.39144610408863       -3.24109580804701
H            7.10420585146262        0.67200101822962        1.06613138759630
