55
 energy: -92.615141287436 gnorm: 0.000110176918 xtb: 6.7.1 (edcfbbe)
C            6.89869606809176       -1.33680750476089        1.74446657661481
C            6.12542532661561       -2.44419081495377        1.42262156545502
C            4.82138250326738       -2.25248420455041        1.00842218603813
C            4.33596041921096       -0.94623611669637        0.91506925190642
C            2.95276953481251       -0.70028832280423        0.50424797163404
N            1.99463770760373       -1.43566409548528        1.04797013794057
C            0.70230698522937       -1.15885765400243        0.80795291333660
C           -0.32769630260914       -1.92382774690878        1.35116216298980
C           -1.65533275085557       -1.58258063003068        1.14087343239780
C           -1.97228052699612       -0.46808611707064        0.37653923889561
N           -3.33266107959327       -0.11743078986389        0.17151495698778
C           -4.15610489360682       -0.92070414753240       -0.60424305077135
C           -3.68563514968199       -2.06058637383414       -1.25317361735931
C           -4.53734664683525       -2.83756517946422       -2.01762146599691
C           -5.87164462880693       -2.49123144238571       -2.15568872348854
C           -6.35344086376624       -1.35042921515858       -1.53546758266507
C           -5.50666508250592       -0.56587363772198       -0.76973675135905
O           -6.03761985890904        0.55943914467312       -0.20153946232628
C           -5.21050356357544        1.34641526748826        0.55169482553386
C           -5.76161762573800        2.48138434838921        1.12339528453016
C           -4.98185778714626        3.30943691662411        1.91377042734016
C           -3.65228993960159        2.99238039667441        2.13896644587283
C           -3.09381528330245        1.86128573935824        1.57102563034333
C           -3.85662806906760        1.02619295633489        0.75703880215375
C           -0.96737946390401        0.30999780615154       -0.19787043179914
C            0.37275660170572       -0.01631923607936       -0.00505387865705
N            1.35967141924257        0.67678803903998       -0.58901888110339
C            2.63369704673178        0.33480350430643       -0.39474464806054
C            3.66544856885931        1.01287291139568       -1.16074231338139
C            3.48917236030878        2.34350178999459       -1.56125665199365
C            4.48114984272913        2.94901073107075       -2.30415598987921
C            5.61487086763147        2.21739978963461       -2.63975209210499
C            5.68465146397788        0.89793368191835       -2.21874220428337
N            4.74322162050826        0.30857189720416       -1.50832443277361
N            5.07068499835930        0.11139771324979        1.24927940871090
C            6.31324768522557       -0.08348248906995        1.64800742817301
H            7.92219453805227       -1.44193540120838        2.06756349311093
H            6.53537840037080       -3.44132837149845        1.49507450300532
H            4.17627460412395       -3.07849783167297        0.75293350159247
H           -0.06757347720984       -2.77604183171349        1.95847666368089
H           -2.44330914690999       -2.17679046919194        1.57756158696042
H           -2.64581837616652       -2.32939054151734       -1.15654889787554
H           -4.15077181305110       -3.71709575849681       -2.50830315080915
H           -6.53579750740077       -3.09889943001755       -2.74925151615322
H           -7.38318439136637       -1.04600243186724       -1.63383636550562
H           -6.80265159219510        2.69310004218163        0.93874904605869
H           -5.41567024138986        4.19229505462819        2.35534497521623
H           -3.04105424362974        3.62492612506718        2.76352525412937
H           -2.06057118294202        1.61525195831555        1.75685430958814
H           -1.21465332147237        1.15604243519699       -0.81951699476437
H            2.58695677150407        2.86180289239366       -1.27691967011074
H            4.37768234868927        3.97704481978626       -2.62067745606979
H            6.41472353710684        2.65394420955709       -3.21630959290691
H            6.53353339050034        0.27229743591902       -2.46618065111587
H            6.85991113271736        0.81512695279766        1.90595623385427
