  90
       -140.44504348
 C         -6.3202158639       -4.6284857953        0.6051491374
 C         -5.6834578769       -3.7553928756       -0.2611666828
 C         -6.1695569224       -2.4743675511       -0.4431199281
 C         -7.3010122708       -2.0504910133        0.2521066178
 C         -7.8493014815       -0.7116839931        0.0894011011
 N         -9.1271229874       -0.4485368330        0.0962877078
 C         -9.2418110294        0.8943332823       -0.1342481990
 C        -10.3710293278        1.7012008928       -0.2227144772
 C        -10.1791870629        3.0471052204       -0.4508251594
 C         -8.9012006165        3.5948441218       -0.5826843115
 C         -7.7661916726        2.8134200374       -0.5000439217
 C         -7.9523500185        1.4573950555       -0.2870475361
 N         -7.0738636458        0.4089975386       -0.1367436267
 C         -5.6744905300        0.4959495340       -0.0910153461
 C         -4.9862624645       -0.0049081712        1.0102512936
 C         -3.6077139090        0.0389001608        1.0370651431
 C         -2.8924438734        0.5885130751       -0.0246887709
 C         -1.4168050725        0.5903996785       -0.0094647469
 C         -0.7152943488        1.8046160606        0.0106418244
 C         -1.3849152169        3.0555180132        0.0679197223
 C         -0.6951739429        4.2281389137        0.0462267642
 C          0.7110019769        4.2230570692       -0.0415975273
 C          1.3924742063        3.0455756835       -0.0630730416
 C          0.7140743949        1.7993629219       -0.0071969090
 C          1.4067530462        0.5799085253        0.0115867679
 C          2.8823363838        0.5695911505        0.0297133554
 C          3.5982676769        0.0189010685       -1.0310356654
 C          4.9770110297       -0.0231674562       -1.0045470779
 C          5.6648209286        0.4810326910        0.0953727338
 N          7.0653156886        0.4101407545        0.1368918836
 C          7.8585018081       -0.6974932635       -0.0915411363
 C          7.3345618708       -2.0460336451       -0.2524498034
 C          8.0084927438       -2.9297761242       -1.0939020018
 C          7.5430476412       -4.2187469660       -1.2672444257
 C          6.4050368663       -4.6437049174       -0.6005282325
 C          5.7456822516       -3.7787966281        0.2570034931
 C          6.2063854605       -2.4881026665        0.4366991728
 N          9.1318850177       -0.4129057085       -0.1020740964
 C          9.2250718574        0.9314872357        0.1284265749
 C         10.3409962711        1.7570451204        0.2141013888
 C         10.1273739456        3.0996662915        0.4422497848
 C          8.8407500284        3.6260800767        0.5772711747
 C          7.7187537489        2.8258235807        0.4976873230
 C          7.9269574452        1.4730242748        0.2844751433
 C          4.9615641629        1.0525183130        1.1501340531
 C          3.5811897674        1.0943606921        1.1133880464
 C          0.7051284917       -0.6356444978        0.0181612940
 C          1.3737122928       -1.8872148324        0.0796513006
 C          0.6838696599       -3.0595742912        0.0459867201
 C         -0.7209029606       -3.0541522216       -0.0576418118
 C         -1.4020779981       -1.8766258583       -0.0860448590
 C         -0.7241519878       -0.6302898508       -0.0199470881
 C         -3.5918368982        1.1154791605       -1.1069241902
 C         -4.9722375219        1.0717256876       -1.1440349234
 C         -7.9521270804       -2.9426421327        1.1023882089
 C         -7.4611325905       -4.2218457725        1.2782670860
 H         -5.9334986605       -5.6268104765        0.7472186962
 H         -4.8053385571       -4.0747801299       -0.8036230726
 H         -5.6808433707       -1.8129250249       -1.1433813991
 H        -11.3553996019        1.2764081838       -0.1104996182
 H        -11.0353354268        3.7015490671       -0.5233122026
 H         -8.7997837087        4.6565979259       -0.7523513748
 H         -6.7785001128        3.2407179799       -0.5923159144
 H         -5.5380900637       -0.4353742603        1.8326294326
 H         -3.0730232809       -0.3510516327        1.8906133637
 H         -2.4626103023        3.0616375982        0.1333186078
 H         -1.2196542519        5.1712654204        0.0895436706
 H          1.2421099274        5.1623594956       -0.0866670238
 H          2.4701112864        3.0443620826       -0.1295784011
 H          3.0640602176       -0.3723516240       -1.8843168899
 H          5.5292345889       -0.4528063585       -1.8271068770
 H          8.8953549449       -2.5838654822       -1.6013994224
 H          8.0683152672       -4.8960737065       -1.9242960658
 H          6.0389896698       -5.6502209551       -0.7396927412
 H          4.8699849515       -4.1123870669        0.7947997403
 H          5.6998239852       -1.8326644987        1.1298967183
 H         11.3319700889        1.3487812538        0.0987792534
 H         10.9726579371        3.7681534326        0.5137852881
 H          8.7220524695        4.6861038778        0.7465982934
 H          6.7243249680        3.2368561433        0.5915965436
 H          5.4996177958        1.4398366809        2.0027877971
 H          3.0336539771        1.5188828853        1.9422958732
 H          2.4507057612       -1.8966899832        0.1564579865
 H          1.2081443519       -4.0026564040        0.0928249416
 H         -1.2522099259       -3.9931365293       -0.1074970372
 H         -2.4791870209       -1.8778780846       -0.1618718630
 H         -3.0446392702        1.5414180688       -1.9353124312
 H         -5.5106915745        1.4583338199       -1.9967605483
 H         -8.8418865671       -2.6113263684        1.6145676139
 H         -7.9689564581       -4.9058929496        1.9420025595
