  97
       -148.27685868
 C          3.4324217952        0.9295818876       -2.7759951049
 C          3.3330045144        2.2719493480       -2.0628551004
 C          1.8965067707        2.7867592126       -2.0098268157
 C          1.7974933309        4.0888342501       -1.2184217349
 C          0.3520993458        4.5567731988       -1.0614663417
 C          0.2008211710        5.8115417964       -0.1949589715
 C          0.7248040913        5.7058955555        1.2396377698
 C         -0.1366447292        4.8639023756        2.1822323864
 N         -0.1620051841        3.4654436573        1.8210454051
 C         -1.3370443302        2.8157230854        1.4741778331
 O         -2.4273588547        3.3455741281        1.5091513672
 C         -0.9297600688        1.4589259967        1.0878326967
 C         -1.5204854654        0.3189130515        0.5979779952
 C         -2.8967727565       -0.0347213073        0.3589575977
 C         -3.2224330436       -1.2830592408       -0.1855837463
 C         -4.5324000111       -1.6465628707       -0.3947128221
 C         -5.5679440952       -0.7715122463       -0.0600854436
 N         -6.8951488103       -1.1412807720       -0.2574259410
 C         -7.8772664852       -0.3591075441       -0.8408288045
 C         -7.7813988733        0.8994182531       -1.4165243691
 C         -8.9251817518        1.4460842936       -1.9678781299
 C        -10.1364929254        0.7591827166       -1.9612266249
 C        -10.2308757546       -0.5064143480       -1.4172792523
 C         -9.0950435452       -1.0754099179       -0.8572883996
 C         -8.8312228447       -2.3478093866       -0.2432712069
 C         -9.6266084936       -3.4487275909        0.0443848334
 C         -9.0536494650       -4.5287760631        0.6861091857
 C         -7.7116161823       -4.5103536094        1.0570774457
 C         -6.9008280200       -3.4251601723        0.7813267134
 C         -7.4627245366       -2.3499192783        0.1084953374
 C         -5.2508170109        0.4774290229        0.4751379281
 C         -3.9392230156        0.8423097798        0.6796754937
 S         -0.2685959875       -0.8610532705        0.2643171298
 C          1.0319253858        0.1918642926        0.7889211859
 C          2.3942911061       -0.2534054924        0.6449822845
 C          2.6750337097       -1.4873315782        0.0459578122
 C          3.9716399740       -1.8961640048       -0.1635893313
 C          5.0354888566       -1.0794620411        0.2226528508
 N          6.3495564847       -1.4677641597       -0.0202989198
 C          7.3288756608       -0.6714120918       -0.5861925342
 C          7.2412037334        0.6236177762       -1.0760222152
 C          8.3767816876        1.1796634310       -1.6345050010
 C          9.5712391424        0.4681778597       -1.7160263175
 C          9.6563783343       -0.8306445234       -1.2548983918
 C          8.5285818540       -1.4106878906       -0.6900067812
 C          8.2550691603       -2.7135712132       -0.1482728126
 C          9.0324693388       -3.8474576910        0.0451350089
 C          8.4532302983       -4.9534444151        0.6351112652
 C          7.1226715359       -4.9310868374        1.0457882786
 C          6.3297571911       -3.8134295818        0.8644666902
 C          6.8981290099       -2.7088679208        0.2467562143
 C          4.7641862920        0.1384048077        0.8459218546
 C          3.4662377879        0.5467295233        1.0552271164
 C          0.4916422009        1.3799830836        1.2162737602
 C          0.9630146700        2.6602113289        1.7658148004
 O          2.0598922011        3.0052723343        2.1520276313
 H          4.4638979211        0.5848979613       -2.8071363670
 H          3.0675702330        1.0105565684       -3.7976687048
 H          2.8386829836        0.1817007484       -2.2561312536
 H          3.7026555469        2.1624236943       -1.0429359317
 H          3.9616803758        3.0045477073       -2.5736593670
 H          1.2695158908        2.0307720889       -1.5348244538
 H          1.5224703913        2.9392859646       -3.0246693995
 H          2.3774410100        4.8671982078       -1.7192445505
 H          2.2435192757        3.9209560193       -0.2409607782
 H         -0.2489107541        3.7467038662       -0.6542804391
 H         -0.0531918657        4.7845499280       -2.0513103058
 H          0.7371017121        6.6288443575       -0.6831670523
 H         -0.8568080193        6.0835751629       -0.1631994353
 H          1.7364361135        5.3075522222        1.2420490555
 H          0.7632956110        6.7113184296        1.6633877362
 H         -1.1750368335        5.2005892058        2.1603875225
 H          0.2548157420        4.9563720245        3.2002902666
 H         -2.4318421309       -1.9686029270       -0.4546101022
 H         -4.7651278888       -2.6024022667       -0.8383267730
 H         -6.8440210733        1.4337457309       -1.4478164389
 H         -8.8753376718        2.4268468350       -2.4169744296
 H        -11.0081088913        1.2220295233       -2.3987616422
 H        -11.1639571284       -1.0487837268       -1.4297255659
 H        -10.6718359156       -3.4522439011       -0.2246744771
 H         -9.6531131426       -5.3965303616        0.9163337422
 H         -7.2944236257       -5.3601463158        1.5764739497
 H         -5.8683476770       -3.4138153348        1.0966632528
 H         -6.0444126494        1.1520997242        0.7554002350
 H         -3.7134713193        1.8082092803        1.0964595044
 H          1.8602442512       -2.1181878427       -0.2785908612
 H          4.1716977690       -2.8335397682       -0.6589264957
 H          6.3168435439        1.1782598527       -1.0369758302
 H          8.3337292719        2.1877457249       -2.0195961819
 H         10.4368307809        0.9392761007       -2.1566336087
 H         10.5762135252       -1.3894902468       -1.3352541595
 H         10.0690650830       -3.8566473869       -0.2554960001
 H          9.0391668301       -5.8462153540        0.7928588293
 H          6.7011287796       -5.8040698642        1.5213648392
 H          5.3063827764       -3.8000739284        1.2080572130
 H          5.5832067761        0.7570245314        1.1778224357
 H          3.2722379268        1.4864676279        1.5423155206
