42
 energy: -72.787876024099 gnorm: 0.000150598776 xtb: 6.7.1 (edcfbbe)
N            4.90229820069715        3.09190262453741       -1.20207144019413
C            5.22558404312929        2.06520365752324       -0.78435967916086
C            5.71098365887060        0.85923876596167       -0.27447242234844
C            7.10602770044093        0.83997405616890       -0.14739202371264
N            8.25415185771817        0.82399694949441       -0.04511382937060
C            4.97800965537863       -0.26218703002571        0.11183644835169
C            3.58853266488465       -0.45680103037703        0.05919002716166
C            2.64835705923232        0.46433429110181       -0.47450596389447
C            1.30686784421615        0.21784182103543       -0.46094254461462
C            0.76710286192753       -0.98333330166058        0.06474392690906
C           -0.63753005000226       -1.24795788899175        0.06122012422884
C           -1.10338179186964       -2.56014267962461       -0.18603710966530
C           -2.41738773775399       -2.82018461086909       -0.43852002070005
C           -3.39101660627861       -1.78364591434688       -0.42164151408255
C           -4.74027415434453       -2.02645781476478       -0.72077380517375
C           -5.67081545930322       -1.01522303479776       -0.67332229404193
C           -5.30061587054768        0.28972646185858       -0.28492723938534
C           -6.23873082986205        1.33923603998227       -0.20171206433724
C           -5.85306547415031        2.60652866274933        0.20019037119586
C           -4.54098421321871        2.86568679577142        0.54316909558935
C           -3.56360925623509        1.84774819159914        0.47346578848247
C           -2.22589748520919        2.06203851649070        0.85422906479462
C           -1.28722172043369        1.05929370216463        0.75183768250728
C           -1.61609103629207       -0.20340111264749        0.22931838375643
C           -2.97793310221828       -0.47574691887705       -0.05970001746401
C           -3.94481960027561        0.55248715854873        0.04058861906001
C            1.69218547625749       -1.94308712423593        0.54275004615280
C            3.02448002767274       -1.66715631909275        0.55066231015141
F            3.86523608120719       -2.60085614749520        1.07320775127220
H            5.56895439638966       -1.08007985817686        0.50685188074028
H            3.01789117562012        1.37710632018394       -0.91262422881998
H            0.64164210046839        0.92770877185962       -0.92804300300168
H           -0.38199382556669       -3.35861689930123       -0.26569884304303
H           -2.73572699085820       -3.82205892642639       -0.68614593119913
H           -5.04119375682848       -3.02814637379322       -0.99094677825247
H           -6.70290981106325       -1.21201013488277       -0.92273444652208
H           -7.26955657179317        1.13869965100872       -0.45299068475095
H           -6.58739472633396        3.39648880764807        0.25511539611532
H           -4.24472842536026        3.85072367915858        0.87137223065749
H           -1.93924114716612        3.02897249797694        1.24038910324427
H           -0.28351282009339        1.23951411007445        1.10458123829748
H            1.35458994677141       -2.87332825963499        0.97174393741874
