42
 energy: -72.846822655294 gnorm: 0.000112028414 xtb: 6.7.1 (edcfbbe)
N            5.23032415627870        2.81389488549534       -1.53012362632551
C            5.43905252930556        1.85840103233836       -0.92738687302294
C            5.80315277782279        0.71339947805381       -0.18835220848159
C            7.19495948217896        0.64892395023286        0.05908178045420
N            8.32364267028605        0.59780441631973        0.25874355013114
C            4.99417169206806       -0.27532037673557        0.28209327679363
C            3.57517213120036       -0.42045609416275        0.14591596303046
C            2.73630430954968        0.47997980161577       -0.53136734357466
C            1.38046814570051        0.26713389390305       -0.62146852020598
C            0.78307557899886       -0.86087403249127       -0.04700906202112
C           -0.65173907522248       -1.12110537624410       -0.19322522337420
C           -1.04701446672366       -2.36863471413514       -0.67745637085055
C           -2.37036125140092       -2.65420708242865       -0.93140123619859
C           -3.36331540044359       -1.69993155079592       -0.69578051345897
C           -4.73705534107214       -1.95679404027106       -0.97342603686326
C           -5.68835497099612       -1.02485682399671       -0.73071139818918
C           -5.35122955923564        0.24560368141176       -0.17794999097843
C           -6.31713770294997        1.21893272730367        0.08619462316017
C           -5.96125766179974        2.43977074543366        0.63081045877438
C           -4.63930855157594        2.71858855427934        0.92627017571489
C           -3.63951631691735        1.77672778568710        0.67401112444185
C           -2.27003303261293        2.01948274376412        0.98207930332373
C           -1.31177789889542        1.10090088710115        0.71391726947344
C           -1.62801054944957       -0.14930305786069        0.10341763794557
C           -2.99153109041984       -0.44147142418913       -0.15943418717608
C           -3.99182603065659        0.52552758910634        0.11103179702298
C            1.59843789282071       -1.77748562304603        0.62019573755751
C            2.94974311384834       -1.54592305531537        0.71262339363229
F            3.70655098901958       -2.44728477056593        1.38080849422038
H            5.49104168808803       -1.06673507763656        0.83238039504455
H            3.16799054694448        1.35222972541096       -0.99451759615833
H            0.76840659944035        0.96750457022369       -1.16853531209856
H           -0.28963778161354       -3.10766296509721       -0.89530451201407
H           -2.64841064492702       -3.61993285274268       -1.32773187542402
H           -5.00008370599814       -2.92039508725763       -1.38619931507417
H           -6.72789431188863       -1.22713171936537       -0.94675378635769
H           -7.35259305796119        1.00800246379103       -0.14017858561193
H           -6.72261533947257        3.18057681864461        0.82859486612693
H           -4.36849712895616        3.67211122199364        1.35669958086811
H           -2.01098193595118        2.96042517973886        1.44663301061930
H           -0.28500937085019        1.30092846886851        0.98085654073639
H            1.17996100812318       -2.65745454423075        1.08364865413387
