42
 energy: -72.846712273451 gnorm: 0.000192623182 xtb: 6.7.1 (edcfbbe)
N            6.89833932260355        1.33578289181380        2.16100948520752
C            6.73303537044862        0.58966495455887        1.30331307443907
C            6.63905948662014       -0.34475813831168        0.25090102956867
C            7.88853727144873       -0.92685680102184       -0.06927315543609
N            8.90272908160826       -1.39752768989506       -0.32672314908911
C            5.53006053644364       -0.71577407900131       -0.44586381522336
C            4.17764264080385       -0.26737193869284       -0.29383156592737
C            3.74241519283506        0.66841865508807        0.65872681924148
C            2.42246877570585        1.04670842840122        0.73842137268349
C            1.45691564990121        0.50345170947740       -0.11615287118594
C            0.06104427937399        0.94311624359762       -0.03786084284966
C           -0.19600865999819        2.31469025202880       -0.03700915128411
C           -1.48349037767453        2.80399551663789       -0.04818235484163
C           -2.57692194046118        1.93418347341134       -0.04678909116956
C           -3.91932974514326        2.41060916594005       -0.08155187669845
C           -4.96831314673135        1.55515033453964       -0.06993989088672
C           -4.76805850617447        0.14457694439957       -0.01307615690920
C           -5.83575984033000       -0.75535765096597        0.00533593092330
C           -5.61124608443578       -2.11892579098812        0.06777959184933
C           -4.32199121883860       -2.61684592911302        0.11679830071182
C           -3.22437948401693       -1.75371652865862        0.09732570217817
C           -1.88281823422811       -2.22698450896643        0.17005710081042
C           -0.83036835331530       -1.37564023997693        0.13389806826259
C           -1.01465306702212        0.03402462771012        0.01144650144548
C           -2.34167902717396        0.53691145177527       -0.00280215616474
C           -3.44219258510334       -0.35586758187104        0.02616599121446
C            1.86666494667588       -0.42436580179695       -1.07697904749701
C            3.19016614055510       -0.78603559879369       -1.15139140983746
F            3.55350792166314       -1.67896239930870       -2.10165385560667
H            5.68978392587579       -1.45262270559397       -1.22531614218500
H            4.45913838307863        1.09404790677488        1.34198592584047
H            2.11898869968294        1.75950603209300        1.48961394851021
H            0.63724462165754        3.00147537043848       -0.06843641314750
H           -1.65629065455533        3.87015303286659       -0.06886509581023
H           -4.07825876047708        3.47899840500811       -0.11815906862954
H           -5.98349895942998        1.92493211132808       -0.09846945832140
H           -6.84622586143800       -0.37387008279587       -0.03048431876828
H           -6.44974445485849       -2.80030677222621        0.08083267636859
H           -4.15318688070569       -3.68286535610971        0.17135992369878
H           -1.72203895598547       -3.29170765209923        0.26444523783279
H            0.17454189679909       -1.76057011914204        0.22002826556869
H            1.16416965432352       -0.84346214256010       -1.78063405888546
