42
 energy: -72.787870921132 gnorm: 0.000052798033 xtb: 6.7.1 (edcfbbe)
N            4.91224495093740        3.11885034366527       -1.12412786577498
C            5.23358433168365        2.08571537275186       -0.72098814922275
C            5.71680145905053        0.87068661883682       -0.23091268642198
C            7.11160929300722        0.84776595916803       -0.10176205454723
N            8.25942218803118        0.82796657859463        0.00312797123579
C            4.98229090655260       -0.25739694341878        0.13239781681888
C            3.59276241883342       -0.45023608840755        0.07435266996147
C            2.65267548368807        0.48462048712941       -0.43511865222130
C            1.31139653070613        0.23639047560000       -0.43137988091491
C            0.77205086361221       -0.97985676362622        0.05868536062662
C           -0.63195530021636       -1.24757522515935        0.04113198381046
C           -1.09278158050736       -2.55321861169616       -0.24678413622585
C           -2.40480677915411       -2.80933995810743       -0.51318795548404
C           -3.38161806277389       -1.77658341866262       -0.46953444668474
C           -4.72875009050153       -2.01421467314165       -0.78197384424001
C           -5.66281244476366       -1.00784209083450       -0.70723406685215
C           -5.29868655266231        0.28523597692732       -0.27581608034448
C           -6.24105230434078        1.32803307680833       -0.16183140385609
C           -5.86166029976076        2.58290252882829        0.28270520023972
C           -4.55156521194844        2.83578774205279        0.63770889103625
C           -3.56999859695254        1.82436032568039        0.53801341017187
C           -2.23410795590480        2.03149493545128        0.92899158228629
C           -1.29133662650904        1.03598409921090        0.79771179752984
C           -1.61425269290979       -0.21128748574949        0.23598142047402
C           -2.97416090567458       -0.47906600618268       -0.06614528669357
C           -3.94493763982813        0.54229794619417        0.06250280523535
C            1.69692523150353       -1.95049530798545        0.51444810250217
C            3.02884619846138       -1.67336627031991        0.53342838954491
F            3.86922908767069       -2.61893742472146        1.03461159340218
H            5.57224754230363       -1.08384476998883        0.51078270100936
H            3.02213380232293        1.40965336843415       -0.84672861663913
H            0.64630720034643        0.95839409731597       -0.87973346062663
H           -0.36862035334888       -3.34693136437001       -0.34646541741265
H           -2.71898057321192       -3.80418337994228       -0.79242081206056
H           -5.02529087647532       -3.00800259984969       -1.08424950570131
H           -6.69320428527014       -1.19999418346264       -0.96707715382660
H           -7.27033324054681        1.13171622252393       -0.42259204462366
H           -6.59938945233643        3.36765545904183        0.36136875819996
H           -4.26028659086209        3.81040275213261        0.99970376666959
H           -1.95210047023555        2.98703024573161        1.34575787737178
H           -0.28914567958079        1.20903583617926        1.15826042780992
H            1.35903128856006       -2.89194381595058        0.91804488953881
