  42
        -72.81398533
 N          5.1502114140        2.8285620539       -1.5371446805
 C          5.3930398243        1.8795984411       -0.9385020971
 C          5.7846225317        0.7441864718       -0.1975524504
 C          7.1777846063        0.7032647299        0.0521193177
 N          8.3056928120        0.6682060522        0.2528962034
 C          4.9924797067       -0.2525475802        0.2775788582
 C          3.5735721718       -0.4159777767        0.1379510947
 C          2.7376589306        0.4352316381       -0.6012024490
 C          1.3829998278        0.2117139170       -0.6862057341
 C          0.7857991287       -0.8758788810       -0.0401437465
 C         -0.6504871015       -1.1419718613       -0.1618179232
 C         -1.0534243513       -2.4163965042       -0.5597260388
 C         -2.3809254036       -2.7165934486       -0.7708922452
 C         -3.3692745360       -1.7486695577       -0.5786247905
 C         -4.7480700715       -2.0229199231       -0.8095826615
 C         -5.6947341664       -1.0768665197       -0.6095876258
 C         -5.3474551439        0.2278011885       -0.1521185976
 C         -6.3082590734        1.2168232161        0.0661546414
 C         -5.9421954307        2.4720227262        0.5169151303
 C         -4.6148161030        2.7702383329        0.7633225791
 C         -3.6199638543        1.8128998038        0.5560039134
 C         -2.2453416291        2.0746340851        0.8207852371
 C         -1.2927515768        1.1381178811        0.6010686726
 C         -1.6201704114       -0.1506629338        0.0842146410
 C         -2.9879120937       -0.4576364756       -0.1350853796
 C         -3.9828157317        0.5263167261        0.0882048075
 C          1.6001027411       -1.7464375518        0.6848049115
 C          2.9518286150       -1.5084585922        0.7670669342
 F          3.7057198330       -2.3612970185        1.4900046792
 H          5.4957198724       -1.0308305227        0.8401161159
 H          3.1683251160        1.2764288535       -1.1191913516
 H          0.7718440871        0.8716346913       -1.2831887662
 H         -0.2989266617       -3.1685660550       -0.7414673226
 H         -2.6657541281       -3.7058338434       -1.0982496490
 H         -5.0179380342       -3.0120750521       -1.1510309202
 H         -6.7382811839       -1.2927334738       -0.7890664804
 H         -7.3477835711        0.9902698359       -0.1220233515
 H         -6.6997269028        3.2243669363        0.6804952315
 H         -4.3350957526        3.7507287024        1.1208547704
 H         -1.9772552803        3.0449529909        1.2139975470
 H         -0.2610710522        1.3535505445        0.8373412800
 H          1.1802920073       -2.5954456956        1.2021082721
