68
 energy: -100.150125494055 gnorm: 0.000046731854 xtb: 6.7.1 (edcfbbe)
O            3.92970481048336       -0.20333714960688       -2.88361063716353
P            3.72028906151354       -0.12479878567885       -1.43322237205127
C            4.47395722317159       -1.51009469168468       -0.51847127896557
C            4.64909597236799       -2.69400615742713       -1.22105752602815
C            5.20146460042424       -3.79681216013613       -0.59513727165065
C            5.58026248626057       -3.71560124825850        0.73509808591409
C            5.41292933154321       -2.53157754303509        1.43567659946069
C            4.86089838462631       -1.42668889743664        0.81234644027425
C            4.42451189269597        1.37968860187949       -0.68136928673939
C            5.52205541621808        1.93627833392970       -1.32284782297086
C            6.12678775422381        3.06781953891154       -0.80646760935240
C            5.63244746162126        3.64445953992879        0.35236673743229
C            4.53130533481214        3.09440840484293        0.98904851824823
C            3.92434181227527        1.96221565892970        0.47517958651456
C            1.96292010160718       -0.12019688039335       -0.95288426698035
C            1.49249335046693       -0.61564065808973        0.25586148952426
C            0.14165876179335       -0.55279236152694        0.54007777094013
C           -0.76311275058830        0.00014073805198       -0.36320842653161
Si          -2.61573289079681        0.03328466712761        0.04222404063230
C           -3.37519458307465       -1.65634149139542       -0.35182558521832
C           -4.75260340138298       -1.78613831688974       -0.50977349033128
C           -5.32738337212933       -3.01380084097592       -0.78281045845993
C           -4.52952252615032       -4.13931443844814       -0.90555700114377
C           -3.15760372440253       -4.02754555773911       -0.75592351032490
C           -2.58889912352401       -2.79672974292706       -0.48124709742295
C           -3.48506544747940        1.35206386598288       -1.00306762707833
C           -3.81211039742165        1.09130578767780       -2.33143574311910
C           -4.43371258542268        2.04675691397993       -3.11428973263932
C           -4.74308496823069        3.28600274615654       -2.57864515495866
C           -4.42963920437700        3.56042712294075       -1.25818386748616
C           -3.80640097688257        2.60084353301465       -0.48067153122717
C           -2.81110425904328        0.42964243316064        1.88493558992472
C           -2.00147425469393        1.38832728540406        2.48896788517123
C           -2.14718361234229        1.70618883676639        3.82686171804947
C           -3.11043517295517        1.06638281723023        4.58919920696768
C           -3.92177277628302        0.10796667213506        4.00584988597113
C           -3.77118268194842       -0.20472545471405        2.66664285891642
C           -0.27443773255612        0.49004633935848       -1.57043863577533
C            1.07408414790668        0.43074044679249       -1.86558688537931
H            4.35581600770910       -2.72632124565852       -2.26067061471497
H            5.33891306874100       -4.71809824763043       -1.14204796722498
H            6.01285112413281       -4.57458390230858        1.22693049638813
H            5.71681194160510       -2.46899919647254        2.47073199430573
H            4.74230137138769       -0.49801052989869        1.35296772416889
H            5.87981879090053        1.47322613997539       -2.23141642019346
H            6.98097437326435        3.50149637448467       -1.30546583228627
H            6.10214192663376        4.52849021722484        0.75826752473582
H            4.14333961599653        3.55147141955584        1.88804860113578
H            3.05753437337925        1.53797722310255        0.96283267440401
H            2.17941564934620       -1.05841710285725        0.96419988637600
H           -0.22289857949398       -0.93712125871555        1.48291012494392
H           -5.37866331738616       -0.90877604926718       -0.42289570131127
H           -6.39850342776733       -3.09464113754893       -0.90197286401238
H           -4.97574270158681       -5.09958393728833       -1.12018494687826
H           -2.53009669282943       -4.90179479187598       -0.85497146375818
H           -1.51668133042671       -2.71573946973899       -0.37048997447951
H           -3.58031491511019        0.12251269767979       -2.75211857002903
H           -4.67896952949608        1.82604784169619       -4.14339798196205
H           -5.22933839994240        4.03410241414819       -3.18788741513498
H           -4.67267916473210        4.52439628351699       -0.83429493259558
H           -3.56864012449766        2.81933080053156        0.55085475168898
H           -1.24486238827820        1.88750182235265        1.89901825723549
H           -1.50988585669926        2.45376963376084        4.27773955269954
H           -3.22670495968494        1.31294492294742        5.63468163366545
H           -4.67295372250203       -0.39625538606851        4.59691378998833
H           -4.40465597135330       -0.95656942762919        2.21781060114874
H           -0.96148155156964        0.92475280601007       -2.28228393801506
H            1.45960392792872        0.79804117813232       -2.80641058522572
