68
 energy: -100.150174334115 gnorm: 0.000046593029 xtb: 6.7.1 (edcfbbe)
O            3.95917716019725       -0.21417072318145       -2.49095259357948
P            3.65302045201996       -0.10578371588776       -1.05976404679878
C            4.39314076620095       -1.43832968945099       -0.06003820657896
C            4.65363491081007       -2.63357041140271       -0.71525826056891
C            5.20412673493432       -3.69762458449238       -0.02413080999308
C            5.49527572558103       -3.56609473291878        1.32402574852166
C            5.24260158775948       -2.37042411305913        1.97768666866255
C            4.69244094768495       -1.30408693144067        1.28902643814157
C            4.26102762502573        1.44009090599893       -0.30613118118304
C            5.40815165563905        1.98651921315734       -0.86474972633857
C            5.94867825445027        3.14753261992435       -0.34286639318446
C            5.34021399190968        3.76472684036899        0.73827070171310
C            4.19025311257322        3.22473309885834        1.29149722881453
C            3.64776216277501        2.06233673048194        0.77246806827733
C            1.86954613647265       -0.14988057910626       -0.69298198214530
C            1.34269052589544       -0.57509051385541        0.51906964267858
C           -0.02460385925287       -0.54228262258136        0.72008313829664
C           -0.88964437998583       -0.09209739787563       -0.27264355429043
Si          -2.76342134952199       -0.00915525833053        0.00791310849845
C           -3.62922075934964       -0.63380052284935       -1.55593975724555
C           -4.81061139883749       -0.05746539065821       -2.01162412576515
C           -5.44812019643359       -0.53650949150836       -3.14198461615957
C           -4.91201963896303       -1.60607283222130       -3.83911239998514
C           -3.73488039964252       -2.19002117524439       -3.40144802388562
C           -3.10211173067374       -1.70621579976075       -2.27109512362854
C           -3.26734390409321        1.77959503238665        0.37708684227850
C           -2.45091222891635        2.85414327199146        0.03889961450670
C           -2.84173375639273        4.15595576908387        0.29676693678917
C           -4.06275944301325        4.40667495887127        0.89949350129019
C           -4.88681139366923        3.34886425507832        1.24644159664418
C           -4.48947034449735        2.04994847618772        0.98752288915243
C           -3.23911929807998       -1.08616720333469        1.49277291874215
C           -3.05133971331173       -0.61792243770704        2.79084926453379
C           -3.38143323766993       -1.39576797897527        3.88545911162456
C           -3.91020993982195       -2.66241843805206        3.69993723753076
C           -4.10709806160279       -3.14247232004934        2.41617980449912
C           -3.77338300303706       -2.35973054277459        1.32534158860580
C           -0.34531099257711        0.31440112029789       -1.48859109370003
C            1.01941156927092        0.28803518478544       -1.69935987593691
H            4.42781880193987       -2.70494142974368       -1.76967042070921
H            5.40821686267997       -4.62773951157855       -0.53404802049047
H            5.92622268045130       -4.39470421919961        1.86677041406305
H            5.47861579300951       -2.26850089094306        3.02720911884569
H            4.50813730165214       -0.36549652819403        1.79310072709792
H            5.85568060298935        1.49199477031826       -1.71513275384568
H            6.84159427745772        3.57270931668918       -0.77719673763577
H            5.75931809109437        4.67206840288916        1.14811746410177
H            3.71334991244779        3.71266197398256        2.12941952136177
H            2.74459099480334        1.64541142119790        1.19601417186723
H            1.99970945242021       -0.94023499812737        1.29653376584621
H           -0.43274427912248       -0.87714304109576        1.66341820053415
H           -5.23113166139889        0.78085621952255       -1.47449181341828
H           -6.36455677187148       -0.07516206354828       -3.48140961336995
H           -5.40823276461800       -1.98195563202280       -4.72214462250227
H           -3.31003822897808       -3.02280961780293       -3.94352645429812
H           -2.18010733016968       -2.16201058206023       -1.93723399697878
H           -1.49478992080691        2.66595522525858       -0.42892421738938
H           -2.19316273847262        4.97738145034975        0.02730495222286
H           -4.37052774606377        5.42261110931611        1.10068210045987
H           -5.83960496493126        3.53845716402595        1.72004263054749
H           -5.13277079805537        1.22716135637692        1.26757486750655
H           -2.64619829097716        0.37348200841852        2.94073359005236
H           -3.22852168559818       -1.01485035191598        4.88533290615410
H           -4.17042220190400       -3.27177372465100        4.55335941398344
H           -4.52281036410012       -4.12865478177148        2.26614531446749
H           -3.93348131215909       -2.73793906863805        0.32556443315821
H           -1.00444508643700        0.64967079702535       -2.27724416450932
H            1.44883267343263        0.59436811976835       -2.64297079590076
