145
 energy: -197.890397500469 gnorm: 0.000062231427 xtb: 6.7.1 (edcfbbe)
C           -0.94498510629359       -7.38441307481832        0.77602160275925
C            0.46787620857573       -7.52357899474200        0.19040737518604
C            1.34525057987828       -8.35683969747144        1.13509827554026
C            0.36078759924317       -8.26702892657279       -1.14367697624865
C            1.07418627920925       -6.13766962114090        0.04227314438270
C            1.49754313794350       -5.62253044294605       -1.17740743461217
C            2.01053891891367       -4.34079425869755       -1.27852647133955
C            2.11787334417373       -3.54175148809659       -0.15074972124681
N            2.56574241228292       -2.19166247701947       -0.23739581940910
C            3.91968666600687       -1.92188983564126       -0.31138591565794
C            4.81770350616368       -2.98961461429761       -0.43194630120265
C            6.16312622801567       -2.76532400947719       -0.58862715658223
C            6.68168843848778       -1.46904504991151       -0.65205102977375
C            8.17127164909321       -1.27195333382944       -0.88700001319524
C            8.54680240296209       -1.88436438392603       -2.24365093428642
C            8.95605322240514       -1.96999712927669        0.23290161171105
C            8.57735757051790        0.20400303473076       -0.89854871363476
C            5.79086033155320       -0.42696256010420       -0.48849916957099
C            4.41653683592102       -0.60102826000346       -0.27321748941404
B            3.41347528742290        0.54121164362038        0.00215018864362
C            3.63871475581352        2.03520878115873        0.32606576202641
C            4.86904303173734        2.59434322284389        0.69858960149021
C            5.07885816029352        3.94862244487306        0.86585999069410
C            6.41135123609688        4.54829918196347        1.28675413402276
C            6.21707251876869        5.31695345865546        2.60140293966439
C            6.90311791841892        5.50662418126810        0.19276433336204
C            7.49287014109613        3.48780349046305        1.50821356599093
C            3.99424000457009        4.79334057670034        0.61540174302030
C            2.75416486650733        4.29208785403703        0.30473441887447
C            2.53693112546327        2.91172697310078        0.21263004767658
N            1.25257746352722        2.43814251784235        0.00734890933665
C            0.18019610214613        3.34096018893587       -0.23626851379410
C           -0.42002169039185        3.35076671815224       -1.49032259559045
C           -1.51275837084933        4.15591895120336       -1.73287669960703
C           -2.03207891755059        4.99513453502646       -0.74871336787263
C           -3.24736448868512        5.85130406353061       -1.06650745458932
C           -4.42161021509510        4.93314042346295       -1.43638036662131
C           -3.67938866274689        6.72832083881900        0.11194470556623
C           -2.91347437913610        6.77177609577209       -2.24936236829686
C           -1.40395359659801        4.99503903168530        0.49124978203920
C           -0.32247954114905        4.17006684301129        0.75446734549400
C            0.93151755837385        1.09811110536928       -0.02558951419694
C           -0.40387706071392        0.70456006320954       -0.00000315478895
C           -0.73720058617288       -0.62896399179682       -0.18906285158957
N           -2.11742370925365       -0.93125164412336       -0.27103208425657
C           -2.76089605717807       -1.80305021486394        0.59634976663328
C           -2.06504429037267       -2.76231242214195        1.33317872678814
C           -2.74093197972966       -3.68428844193191        2.10672215770716
C           -4.12275327830084       -3.67265896203771        2.16104047165283
C           -4.81680099808965       -2.68045264509864        1.49098918855926
C           -4.15583560914655       -1.73025282258808        0.72940917811574
C           -4.87961565984460       -0.51271319732545        0.17627493929167
C           -6.34751426293202       -0.80156848847768       -0.07152330388894
C           -7.36576600692568        0.01581344159570        0.39751033177836
C           -8.68961524999598       -0.27846728933247        0.11460942056969
C           -9.01247962698921       -1.38753829789162       -0.64588682030407
C           -8.00098060538095       -2.19922068800197       -1.13342419044905
C           -6.68089183703160       -1.90534709014321       -0.85201863529076
C           -4.66750803679227        0.57973050478567        1.22662508225102
C           -4.03413681187147        1.77873090667011        0.93018317661509
C           -3.81172262145306        2.72263516783170        1.91896648028857
C           -4.22733991972260        2.48946611921951        3.21650745616495
C           -4.86934985955738        1.30049189896273        3.52055014200380
C           -5.08025387521069        0.35384712293558        2.53645203018236
C           -4.22640278414547       -0.10589238260118       -1.12654124225180
C           -4.93417586519295        0.52421492067111       -2.13793998872927
C           -4.29530346092199        0.97867705423511       -3.27809059967734
C           -2.93025779727394        0.79168936416588       -3.41657025787280
C           -2.21251249481525        0.15570890913235       -2.42474651145205
C           -2.84706567299556       -0.28679879963257       -1.26253572069526
C            0.24621111458070       -1.59095510641807       -0.34405971099268
C            1.58820016207549       -1.22305900178186       -0.21183072774879
C            1.95534571708180        0.13055860874154       -0.07825794152903
C            1.72191373742241       -4.04916752491478        1.07958926055758
C            1.20890277122534       -5.32751712479218        1.16783895169598
H           -0.92184438970232       -6.94776819220409        1.77031286360854
H           -1.41876333500861       -8.36113552859456        0.84577916406694
H           -1.55700383326133       -6.74747192826504        0.14057408027561
H            0.92888141501385       -9.35541713162963        1.24845627417217
H            2.35215584233888       -8.44655479031106        0.73244905599259
H            1.41175405352550       -7.90226774647795        2.11964495152131
H           -0.08378253675448       -9.24608926790034       -0.97733888193397
H            1.34130648241651       -8.41690323618649       -1.58980525104166
H           -0.27229862165828       -7.72590534266585       -1.84306173038959
H            1.42323937437540       -6.21032927493984       -2.07742300360400
H            2.32057497857996       -3.95126085981096       -2.23733167601816
H            4.45276450815552       -4.00596647389843       -0.41024579141942
H            6.81665808518512       -3.62004704390485       -0.68150353336442
H            9.60967904090717       -1.75166135078925       -2.43619356563042
H            8.32570373641154       -2.94797464355745       -2.27135613543039
H            7.98773265297056       -1.39945346318254       -3.04146247970342
H           10.02458015223226       -1.81682733144272        0.09462834985537
H            8.76594270921268       -3.03962651139412        0.24470501914419
H            8.67115746319331       -1.56260466930521        1.20092176425237
H            8.06177763484855        0.74753500873785       -1.68706162125571
H            8.36234354625641        0.67139537608943        0.05956164440222
H            9.64776402150591        0.28523157877212       -1.07877528715839
H            6.14548016659906        0.58687067100708       -0.54690670562479
H            5.67624030431289        1.90664652404851        0.88007447566565
H            5.85896053880082        4.64506940719932        3.37894046574103
H            5.49391064152035        6.11985404853422        2.48631373865456
H            7.16013973703369        5.75143475501601        2.92734190333008
H            6.20766891850863        6.32763179459094        0.04192714243965
H            7.01238965170431        4.97506090713238       -0.75047243355753
H            7.86919807463091        5.92593759551789        0.46697942030925
H            8.41554182514747        3.97020107263458        1.82572367633053
H            7.69788415178316        2.94591837884610        0.58801570050235
H            7.19855518853068        2.78250983991569        2.28212420302640
H            4.11022601440555        5.86505612235029        0.68121926121798
H            1.93972186572571        4.98023668097867        0.13534890534217
H           -0.03521671050521        2.70530308670908       -2.26597464312864
H           -1.96672599753564        4.12137232834190       -2.71123322740299
H           -4.68963628092010        4.30204737112110       -0.59173837175595
H           -4.17506464683302        4.28785243004310       -2.27529435046404
H           -5.28976012815652        5.53000826691034       -1.70788115050993
H           -3.96211248354223        6.12320218833136        0.97036008651150
H           -2.88666033368674        7.41438623665437        0.40199350719432
H           -4.54569782951841        7.31983292998851       -0.17700043216194
H           -2.67977387548042        6.20055345451301       -3.14324547872501
H           -2.05595122560431        7.39740093273246       -2.00979956810928
H           -3.76025917883342        7.41773678211764       -2.47103166736920
H           -1.75416788948283        5.63645243747236        1.28421234151242
H            0.12869046762287        4.16399444627870        1.73603689943644
H           -1.19810383892092        1.42082248981359        0.13696997793380
H           -0.98828849837723       -2.78231580843117        1.31444648200037
H           -2.18012436218992       -4.42019982238129        2.66377649330957
H           -4.65663930177755       -4.40648651578454        2.74541032295738
H           -5.89348488901038       -2.63929251785235        1.57257971040352
H           -7.12918991154359        0.89114469304237        0.98434280074185
H           -9.47099448342649        0.36647048289075        0.49011408166261
H          -10.04547658978911       -1.61642227549523       -0.86307663562045
H           -8.24256263239964       -3.06261117587300       -1.73623714647055
H           -5.89269788998316       -2.53661885752147       -1.23750187349051
H           -3.70918308371844        1.99080186579972       -0.07797360290203
H           -3.30202114510880        3.64062981542192        1.66598984479859
H           -4.05245448246604        3.22660201984566        3.98651386431058
H           -5.20215714226755        1.10691698189623        4.53003510829031
H           -5.57169981241589       -0.57412875398678        2.78767439051307
H           -5.99626653231914        0.68124442698775       -2.02151178497983
H           -4.86051572897377        1.47931447826581       -4.04969066421975
H           -2.42142884730989        1.13638171998731       -4.30504256307009
H           -1.15144952645314       -0.00387991594851       -2.54177673076160
H           -0.02763993280762       -2.60445847981921       -0.58768955361453
H            1.80791872492693       -3.42923770995287        1.96037874537399
H            0.90257783543800       -5.69103801443184        2.13667250329693
