  145
       -197.89019895
 C         -0.9167581713       -7.4255576708        0.6868437573
 C          0.4979839862       -7.5435410561        0.1012624381
 C          1.3811523470       -8.3843426879        1.0338070624
 C          0.3990605459       -8.2668298075       -1.2444970185
 C          1.0928033087       -6.1504038420       -0.0240978391
 C          1.5096736892       -5.6112038146       -1.2355796985
 C          2.0139201873       -4.3245542124       -1.3152690623
 C          2.1191365933       -3.5447594753       -0.1738810279
 N          2.5622359895       -2.1918487806       -0.2393244544
 C          3.9158007320       -1.9182509315       -0.3102841945
 C          4.8170680625       -2.9819038912       -0.4423108010
 C          6.1621609872       -2.7518626637       -0.5944931739
 C          6.6776774573       -1.4536324206       -0.6410307052
 C          8.1670595035       -1.2490412826       -0.8706087132
 C          8.5472926879       -1.8433173477       -2.2339765740
 C          8.9517713213       -1.9582223447        0.2422833374
 C          8.5681901325        0.2283241628       -0.8631772781
 C          5.7837310837       -0.4160274311       -0.4668711982
 C          4.4095918145       -0.5968862484       -0.2570849434
 B          3.4031516901        0.5404968362        0.0225329404
 C          3.6243442823        2.0320753174        0.3581655022
 C          4.8495903945        2.5876818054        0.7517154805
 C          5.0578602968        3.9409653799        0.9285127432
 C          6.3826327609        4.5370606012        1.3777677662
 C          6.1633050602        5.2977824322        2.6930965244
 C          6.8963406528        5.5015750398        0.2995206557
 C          7.4588289139        3.4743235994        1.6139085958
 C          3.9788708360        4.7877300840        0.6610821868
 C          2.7430723949        4.2893063625        0.3290616458
 C          2.5245818795        2.9094675366        0.2329432346
 N          1.2425222596        2.4356929920        0.0125388398
 C          0.1737888082        3.3360450692       -0.2527764842
 C         -0.4190787243        3.3229314951       -1.5105359986
 C         -1.5069380049        4.1271033410       -1.7763089147
 C         -2.0274918524        4.9898827089       -0.8133410114
 C         -3.2369038812        5.8446856392       -1.1561407990
 C         -4.4173643671        4.9220225122       -1.4938959304
 C         -3.6600412792        6.7623525794       -0.0057429554
 C         -2.9002814737        6.7244941149       -2.3688392380
 C         -1.4078499040        5.0113458382        0.4306201157
 C         -0.3324644922        4.1863219822        0.7179838444
 C          0.9223778547        1.0950049444       -0.0190785720
 C         -0.4126299768        0.7003800108        0.0050301317
 C         -0.7439075824       -0.6340881718       -0.1804639931
 N         -2.1240238753       -0.9388178955       -0.2564731767
 C         -2.7641385345       -1.8003081173        0.6235978344
 C         -2.0661414924       -2.7573253687        1.3612431735
 C         -2.7393266797       -3.6687310320        2.1495247388
 C         -4.1204635343       -3.6485942737        2.2175733343
 C         -4.8159201003       -2.6593631315        1.5445986921
 C         -4.1573486788       -1.7196162951        0.7680989017
 C         -4.8804303899       -0.5047251542        0.2080989432
 C         -6.3515849038       -0.7915262563       -0.0221519148
 C         -7.3637439202        0.0276666196        0.4566133988
 C         -8.6911000511       -0.2680184157        0.1919459267
 C         -9.0235496125       -1.3801428495       -0.5599067620
 C         -8.0182864845       -2.1938205652       -1.0570286040
 C         -6.6948134027       -1.8987992741       -0.7935035878
 C         -4.6540780785        0.5998383933        1.2428332581
 C         -4.0283708208        1.7969503710        0.9228513590
 C         -3.7924828693        2.7525408618        1.8972028219
 C         -4.1865787885        2.5330502358        3.2038335848
 C         -4.8213684435        1.3463897910        3.5313458180
 C         -5.0460265477        0.3882699751        2.5614223279
 C         -4.2366406779       -0.1156695578       -1.1047756250
 C         -4.9499867778        0.5049867113       -2.1180561136
 C         -4.3175955837        0.9466519732       -3.2668795450
 C         -2.9535241116        0.7571086114       -3.4117462592
 C         -2.2303804602        0.1299738214       -2.4181901393
 C         -2.8586038418       -0.3008716801       -1.2482644012
 C          0.2402533523       -1.5953434295       -0.3365795357
 C          1.5820850262       -1.2259687967       -0.2070202517
 C          1.9465667881        0.1279878755       -0.0689681542
 C          1.7281852163       -4.0755827772        1.0480719363
 C          1.2234060411       -5.3585659373        1.1149153297
 H         -0.8994089637       -6.9987772723        1.6855518409
 H         -1.3802182963       -8.4079480254        0.7457480053
 H         -1.5347410035       -6.7886342050        0.0571759008
 H          0.9743348887       -9.3887611187        1.1287750169
 H          2.3898515159       -8.4572590946        0.6322785120
 H          1.4407698338       -7.9463823733        2.0262651311
 H         -0.0365741395       -9.2524287359       -1.0939824919
 H          1.3813787331       -8.4005345488       -1.6917760831
 H         -0.2383829508       -7.7208550818       -1.9360993564
 H          1.4375851243       -6.1837978470       -2.1455078314
 H          2.3197352646       -3.9163857524       -2.2676436650
 H          4.4552574953       -3.9995716606       -0.4335300514
 H          6.8180772159       -3.6036509735       -0.6972153246
 H          9.6101397965       -1.7048340711       -2.4226830983
 H          8.3296234107       -2.9071903324       -2.2753634522
 H          7.9882772156       -1.3502680958       -3.0268326464
 H         10.0200715484       -1.7996880800        0.1083314682
 H          8.7652345147       -3.0285366339        0.2403282240
 H          8.6633175324       -1.5638382518        1.2146256184
 H          8.0524218537        0.7798332327       -1.6459986076
 H          8.3495312335        0.6832057255        0.1001341969
 H          9.6386974021        0.3153668166       -1.0400822894
 H          6.1349399702        0.5997038171       -0.5119274016
 H          5.6530042916        1.8977638858        0.9419873397
 H          5.7908396376        4.6211422036        3.4597117126
 H          5.4420331457        6.1010630549        2.5690534310
 H          7.0998704656        5.7305893319        3.0393991046
 H          6.2049252899        6.3245046502        0.1407305797
 H          7.0228899137        4.9757668227       -0.6447968238
 H          7.8575680153        5.9178074803        0.5947945768
 H          8.3757440883        3.9539652409        1.9517249727
 H          7.6807443314        2.9372965656        0.6947823763
 H          7.1490860286        2.7649737581        2.3779959218
 H          4.0954765112        5.8591476287        0.7306790458
 H          1.9334490719        4.9796255021        0.1462961533
 H         -0.0319890239        2.6606603936       -2.2707116376
 H         -1.9559026206        4.0733200047       -2.7561149142
 H         -4.6893681327        4.3215785678       -0.6283283283
 H         -4.1748592561        4.2467088810       -2.3102414271
 H         -5.2818119047        5.5147130358       -1.7855737716
 H         -3.9493930772        6.1872307031        0.8707897320
 H         -2.8593961055        7.4478322905        0.2633219306
 H         -4.5198266089        7.3542434456       -0.3131021066
 H         -2.6796066056        6.1238854905       -3.2467696790
 H         -2.0341993461        7.3474960429       -2.1542616656
 H         -3.7412972700        7.3730163575       -2.6047737577
 H         -1.7603822390        5.6700281126        1.2082419066
 H          0.1102048254        4.1965201810        1.7033688067
 H         -1.2076781895        1.4161133948        0.1405768904
 H         -0.9897571932       -2.7834941780        1.3311119891
 H         -2.1771891699       -4.4028696275        2.7076495662
 H         -4.6524975339       -4.3737059766        2.8143560642
 H         -5.8915743875       -2.6119667108        1.6358748935
 H         -7.1198316043        0.9057259879        1.0362809073
 H         -9.4677203687        0.3783577717        0.5747963658
 H        -10.0592469703       -1.6104256795       -0.7622952184
 H         -8.2674584498       -3.0600706614       -1.6526066783
 H         -5.9114484193       -2.5315828124       -1.1862935350
 H         -3.7206001814        1.9988056108       -0.0927507404
 H         -3.2898566671        3.6691568388        1.6256449266
 H         -4.0005065291        3.2789878586        3.9626947440
 H         -5.1372772352        1.1633720007        4.5482058248
 H         -5.5313343031       -0.5377740731        2.8310006526
 H         -6.0109758866        0.6654510151       -1.9961359381
 H         -4.8869731700        1.4400801289       -4.0400707284
 H         -2.4497724123        1.0928595363       -4.3065230546
 H         -1.1700657472       -0.0316535940       -2.5394852115
 H         -0.0336322521       -2.6093335006       -0.5783695317
 H          1.8121091231       -3.4706494690        1.9393963767
 H          0.9215039861       -5.7409779643        2.0778095578
