145
 energy: -197.801948970697 gnorm: 0.000087261628 xtb: 6.7.1 (edcfbbe)
C           -0.90179561903301       -7.41260128587295        0.76744582583556
C            0.56771358037427       -7.53266190875460        0.33789258800006
C            1.36983618276497       -8.26394216528089        1.42382169879927
C            0.62391641185941       -8.36847388371872       -0.94355168743362
C            1.14288075766714       -6.13836261999411        0.15365113720978
C            1.68843859869174       -5.69375980825561       -1.04578946454578
C            2.18525681295166       -4.40971920067150       -1.18150612121830
C            2.15021494937657       -3.52907260731519       -0.10805858076072
N            2.59497883977523       -2.18654304315147       -0.22465985444158
C            3.94860796227073       -1.90980041590071       -0.30531978564749
C            4.85507953022077       -2.96773454523589       -0.39896909819528
C            6.20577069973263       -2.73316942703367       -0.57259767770627
C            6.69841944304421       -1.42998976949144       -0.68023881608711
C            8.17982944542967       -1.21653158945969       -0.94035555331799
C            8.54480204731828       -1.86933179604401       -2.28162263340370
C            8.99029884194448       -1.86695024772952        0.19028539245540
C            8.56590963077586        0.26320312200659       -1.00763568846346
C            5.79652674405834       -0.38867796323565       -0.52643420337860
C            4.42710492326664       -0.56876497724917       -0.27897216460802
B            3.42023423149468        0.56147884259278        0.00401843818535
C            3.63310113848934        2.05095528066013        0.32284381530010
C            4.86092846277615        2.62985405575207        0.68342013802461
C            5.05772640697175        3.99147743143649        0.83935936678788
C            6.39473541815227        4.60216860784047        1.22249211385630
C            6.22493980387995        5.37893352998125        2.53632429789310
C            6.85055415891509        5.55801955150033        0.11033713363929
C            7.49223908940906        3.55446266693998        1.42485437077262
C            3.96435760737738        4.83293300484960        0.60817812304447
C            2.71676852230235        4.31153056356922        0.32667487740195
C            2.51481391093243        2.93218942733872        0.24320296235949
N            1.23295149623566        2.44244539877944        0.05949302769995
C            0.14396097920266        3.32846341369837       -0.13338469266786
C           -0.53096034747036        3.31743508912993       -1.35223732733382
C           -1.63634624194558        4.11601907805184       -1.54547034458824
C           -2.10822767676589        4.96539077094899       -0.54355504090973
C           -3.33706003570212        5.81916997803402       -0.80835215859787
C           -4.52477293949785        4.90628538317612       -1.14714321668147
C           -3.72804300569976        6.68310113488404        0.39384866396481
C           -3.04449501521701        6.75127263777226       -1.99336952706816
C           -1.41254629516195        4.98167385125633        0.66099950226745
C           -0.31000271875427        4.17225080287872        0.87314189494838
C            0.92921311800709        1.08826342340212        0.00281553958551
C           -0.40108398667332        0.68294440523141        0.03401449377069
C           -0.74008660302975       -0.65487696109428       -0.20045469444465
N           -2.11627334091263       -0.94973357799479       -0.32578846786511
C           -2.78714777907572       -1.84494469432316        0.49426803109637
C           -2.11165981308345       -2.83492778874640        1.20945460221240
C           -2.80950726043941       -3.78053489668511        1.93261686763732
C           -4.19256409195338       -3.76249718848346        1.95477022965700
C           -4.86731700607116       -2.74300779729197        1.30552786685645
C           -4.18482934359946       -1.76894379509396        0.59526232311959
C           -4.88701052124586       -0.52637514150635        0.07116129257854
C           -6.34902235127718       -0.79409367909093       -0.22931712792663
C           -7.37298155408977        0.02288181530211        0.22803057117498
C           -8.68978650213786       -0.24715565567565       -0.10691740852338
C           -8.99941691625686       -1.33096200245518       -0.90834697215978
C           -7.98145932698302       -2.14119554849185       -1.38457684041124
C           -6.66820743149470       -1.87131553085315       -1.05152305637319
C           -4.69490660897890        0.51829938226537        1.17297084063790
C           -4.01621146542296        1.70914211432680        0.95406820533486
C           -3.80758297747304        2.60363764309683        1.99092979314869
C           -4.28462817055563        2.32938941766042        3.25896914813037
C           -4.97313994625711        1.14900126932407        3.48517619147725
C           -5.16832566817643        0.25033838588695        2.45401853698928
C           -4.19814032808613       -0.07067748838701       -1.19657289386428
C           -4.87389225617816        0.61389238383207       -2.19374550398551
C           -4.20416462787991        1.10427101796144       -3.30143517343485
C           -2.83975622335256        0.89782840318320       -3.42213555972232
C           -2.15255007076821        0.21200540876247       -2.44252268201042
C           -2.81801599989159       -0.26664551269585       -1.31139660783831
C            0.27115136690318       -1.59744327223644       -0.37475520909023
C            1.60387541277008       -1.21572189361470       -0.20411187966283
C            1.97089409405429        0.13933805020483       -0.06288531619593
C            1.61891580193366       -3.96296186051176        1.10262760172793
C            1.12834060330314       -5.24543817136469        1.22526754331768
H           -0.99575733125295       -6.91139873548695        1.72644530084162
H           -1.34705459515742       -8.40105858708975        0.85722302823516
H           -1.46641570091720       -6.84430993691143        0.03106755236665
H            0.97654328736876       -9.26802016190604        1.56723744995530
H            2.41517531905357       -8.34113472808361        1.13181567533116
H            1.32012404016276       -7.73980149570457        2.37424162874764
H            0.19466035579231       -9.35021161587965       -0.75426023164602
H            1.64994679939655       -8.51096939229727       -1.27484954337104
H            0.05162893220599       -7.90021585354201       -1.74107926167048
H            1.72687086863663       -6.34314138790251       -1.90484229719058
H            2.59185476815862       -4.07969352816344       -2.12637757113558
H            4.50875527165260       -3.98858878977316       -0.34052887671649
H            6.86810275840627       -3.58227501625431       -0.64079656057688
H            9.60316493821515       -1.72876806257433       -2.49270101898154
H            8.33746713647491       -2.93590846434644       -2.27103972233489
H            7.96845686570200       -1.41801311426287       -3.08679343453414
H           10.05429898578326       -1.70250961306139        0.03128495966672
H            8.81590524870831       -2.93810905707487        0.23920584757918
H            8.71256209481839       -1.43221762565308        1.14838650641134
H            8.02789923987453        0.77389484860188       -1.80295979710515
H            8.36235462869843        0.75884891596875       -0.06142643200002
H            9.63167628917157        0.35203628740234       -1.21086738865646
H            6.14034033671309        0.62682516729900       -0.60918573522737
H            5.67885904619566        1.95248947055758        0.85293193989560
H            5.89715882615422        4.70825284755546        3.32810680342339
H            5.48830492603722        6.17118472733043        2.43462274206238
H            7.17106286727086        5.82778600856174        2.83266360371580
H            6.14318969756738        6.37045194523722       -0.03035518733328
H            6.94372872918254        5.02026546852936       -0.83105940634673
H            7.81831140648565        5.98883553164570        0.35981388194682
H            8.41745088405287        4.04873677188646        1.71586301531754
H            7.67949285092484        3.00791072685696        0.50372597386241
H            7.22432495472354        2.85167342230009        2.21040739897357
H            4.07107419136856        5.90525801946824        0.66259085259201
H            1.89421455379805        4.99275292938452        0.17038660076001
H           -0.18386652713972        2.66739159798261       -2.14159864370715
H           -2.13933647078698        4.06978932247899       -2.49904760935779
H           -4.76258712078316        4.26395965891330       -0.30201932207985
H           -4.31110465217198        4.27282274927537       -2.00384318702953
H           -5.40136677242614        5.50780213716698       -1.37830986698780
H           -3.96936344354522        6.06804018620660        1.25790898154915
H           -2.93055565413029        7.37439391536732        0.65696767928128
H           -4.61063682634646        7.26896047236847        0.14557334996575
H           -2.83575628448636        6.18722447525195       -2.89804366348115
H           -2.18258134421269        7.37881667571726       -1.77564432735868
H           -3.90062956704867        7.39500179173989       -2.18337570094117
H           -1.72689773082322        5.62561836814989        1.46681946861810
H            0.19412582118078        4.18144591904862        1.82847459623039
H           -1.20119030946868        1.38732838630042        0.19887324359053
H           -1.03469110431169       -2.85939878415343        1.21073047786749
H           -2.26650212092220       -4.53998991306520        2.47518009106370
H           -4.74312644915058       -4.51483831121687        2.49859550860676
H           -5.94541880339154       -2.70029331922768        1.36319407803668
H           -7.14598182796774        0.87921662799232        0.84590007684254
H           -9.47590437453874        0.39710495437748        0.25964834107629
H          -10.02699183852480       -1.54086803926680       -1.16642064149455
H           -8.21232622339693       -2.98434527689726       -2.01933121360662
H           -5.87481914565191       -2.50087731394990       -1.42907613804943
H           -3.64608704534936        1.95497712549490       -0.03058219878486
H           -3.26106274574499        3.51542204358847        1.79872606058440
H           -4.12139937400597        3.02813814848067        4.06633017227488
H           -5.35416816844981        0.92418990485572        4.47079522118281
H           -5.69533862811376       -0.67240701627618        2.64510730108146
H           -5.93553880422909        0.78369935186172       -2.09264969152592
H           -4.74513277728440        1.64598238449262       -4.06253837675844
H           -2.30822639769993        1.26775733684773       -4.28681438340334
H           -1.09237983872192        0.03684245233945       -2.54561212583188
H            0.01665483795683       -2.60900218002317       -0.64929133196821
H            1.59546983840694       -3.28263621683706        1.94194267835187
H            0.72509960227522       -5.55020069037182        2.17870498083723
