145
 energy: -197.888176485559 gnorm: 0.000039814127 xtb: 6.7.1 (edcfbbe)
C           -0.44025572436022       -8.16327199090081        1.00726258371650
C           -0.00918953709528       -7.58722971004174       -0.34423811291851
C            1.06949068067921       -8.50664202088247       -0.93429603303388
C           -1.23601914297480       -7.56242983645782       -1.26690708164381
C            0.54970503369474       -6.17800845585789       -0.22945363792838
C            0.98939878083979       -5.51994278923463       -1.37631612103515
C            1.49928269866901       -4.23727558208465       -1.32464904186459
C            1.58659354749706       -3.57603424345475       -0.10818495485440
N            2.09348671727789       -2.24407523165795       -0.04439768838813
C            3.45176892878715       -2.06736168635696        0.14637590354898
C            4.26941770705207       -3.19773920509022        0.27254950534840
C            5.61460649700752       -3.07276253784627        0.51742878025219
C            6.20981839424342       -1.81900737825714        0.67882187692622
C            7.69499421981468       -1.73034896088106        0.99414463916559
C            8.19341767392610       -0.28602216677331        1.09376984428529
C            8.48857909012853       -2.42891204594232       -0.11937530691442
C            7.96265562722375       -2.42508535910625        2.33645861930493
C            5.39377884524434       -0.71409803882330        0.54075014894355
C            4.02730171702146       -0.78258956109336        0.23570586804055
B            3.10715032654960        0.44013458216606        0.02262970166875
C            3.44574585954091        1.93639692101744       -0.16159607153870
C            4.72419817835485        2.44889870343199       -0.40429169553357
C            5.01730454734335        3.79798633022288       -0.50137939529276
C            6.44951906175024        4.24569770872077       -0.75139367648096
C            6.57791496198509        5.76659706383073       -0.87345392031491
C            6.95827723429430        3.61943511769943       -2.05735501002152
C            7.32665016254511        3.78373032202598        0.42098867300013
C            3.95800170396489        4.68942561695291       -0.34090324844333
C            2.67206719659673        4.23630070702398       -0.15497540516879
C            2.38625037762348        2.86803434872455       -0.09511971242667
N            1.06885018313226        2.46315664963888        0.02326106857766
C            0.05103991361030        3.46247118123804        0.04091740932211
C           -0.40654269217021        4.01283839579568       -1.14895872982688
C           -1.40362580084401        4.96671437024209       -1.12933945040666
C           -1.98014336291877        5.39433449802431        0.06513291680396
C           -3.07400767126700        6.44881703108606        0.02785872898931
C           -4.22121545872558        5.94891403980687       -0.86158966396200
C           -3.64197421348778        6.75491695159470        1.41600586071015
C           -2.49183024091901        7.74630951700648       -0.55114336477645
C           -1.51169509940794        4.83033530611877        1.24561063275974
C           -0.50740327255503        3.87741898288193        1.23881096611449
C            0.65972819054390        1.15065878738992       -0.00234486222164
C           -0.70279295928281        0.84706426023251       -0.00917776721007
C           -1.10641526361603       -0.47496961095673       -0.07567189899375
N           -2.50196965341901       -0.74363335504046       -0.09879876707838
C           -3.11602358476306       -1.37368937858785        0.97085546071996
C           -2.36823686725287       -1.94369441019172        2.00379768195452
C           -2.98940875035350       -2.60380093970140        3.04443780276105
C           -4.36863221925025       -2.70585965634298        3.08177664612030
C           -5.11872740934786       -2.10379275151544        2.08706990477050
C           -4.51549260621842       -1.42882625100054        1.03753723800113
C           -5.35067385805824       -0.65543343557554        0.03476627394075
C           -6.67156967211248       -1.38249936154449       -0.14887338546720
C           -7.86448064993721       -0.93014233085771        0.39818394536268
C           -9.03265432359474       -1.65664656269797        0.23700517252985
C           -9.02370432713024       -2.84909255636146       -0.46372907885633
C           -7.83363617936127       -3.31948565530987       -0.99388568696988
C           -6.66837816649728       -2.59483593727270       -0.83252137109303
C           -5.54019109102950        0.78739419309738        0.50702499971346
C           -6.33360959122551        1.65194521740507       -0.24189564722384
C           -6.52827118505637        2.96102761520377        0.15418664658001
C           -5.91818919383120        3.43952162166958        1.30213571507732
C           -5.10291963008028        2.59858689637632        2.03632831257953
C           -4.91690727241830        1.28313660448932        1.64413248611726
C           -4.60080785369313       -0.55230599144746       -1.28163926096191
C           -5.27090865402734       -0.40773094508394       -2.48664578244981
C           -4.58576824847757       -0.18646138166887       -3.66794814612077
C           -3.20413600092481       -0.10744340974122       -3.64875925403144
C           -2.51673645323641       -0.27988463039704       -2.46533384243569
C           -3.20258272660270       -0.50826276107400       -1.27029028444852
C           -0.18768658522329       -1.50951595363902       -0.12879462492062
C            1.17603476835864       -1.21905191568556       -0.05466308366890
C            1.62279403144457        0.11862754451966       -0.00694949815702
C            1.15671942537286       -4.21607561449502        1.04444567282541
C            0.64442072071550       -5.49954647105731        0.98020066141183
H            0.40094186649477       -8.22424906969568        1.69396882222381
H           -0.82881961868807       -9.16941656083098        0.86373757125902
H           -1.22694392431514       -7.56156652538160        1.45648376603489
H            0.69391513852687       -9.52503524117462       -1.00617687543205
H            1.36746480623136       -8.18390515047625       -1.92793251379603
H            1.95165716239816       -8.50866317696724       -0.29727366059857
H           -1.66362931858813       -8.55949808718335       -1.34686927164151
H           -0.97575108855315       -7.22325838618773       -2.26569993487594
H           -1.99425909923979       -6.89278997414964       -0.86607081797684
H            0.93363221770758       -6.01012042981750       -2.33627494426720
H            1.83282970847898       -3.74140537118997       -2.22431714001248
H            3.84142834723332       -4.18571581292496        0.18785714595172
H            6.20431351502492       -3.97318490624878        0.60524236412370
H            9.25903254760991       -0.28357171271773        1.31547677369500
H            8.04640467168815        0.24057487725620        0.15325715967186
H            7.68459107520503        0.25186637373543        1.89051309259250
H            9.55648813912125       -2.35255861347054        0.07568660872041
H            8.27866023350398       -1.96213362139169       -1.07977308871413
H            8.23176888240209       -3.48217233907671       -0.18999526800645
H            7.39635407592175       -1.94019405982662        3.12912499558757
H            7.67284830647618       -3.47191439659783        2.30297295502528
H            9.02086706503168       -2.37137513742095        2.58473066550718
H            5.80522265000457        0.26633611274337        0.69952478565985
H            5.51974882734403        1.73661905036454       -0.54553131854685
H            6.27705222766533        6.26061696112863        0.04762553251809
H            5.97325299263334        6.14494406781289       -1.69468310787065
H            7.61570974862136        6.02911526743884       -1.07039408982099
H            6.94939040992587        2.53415516567404       -2.00797618446220
H            7.97831065248828        3.94241456741118       -2.25631277099246
H            6.32981442870340        3.92665215314700       -2.89083315954217
H            8.35526522283621        4.10700448301184        0.27345293338587
H            7.32026646173784        2.70179854595325        0.51542728206748
H            6.96137078367974        4.20875447621558        1.35382340317130
H            4.11873432052666        5.75478376440517       -0.37653402557568
H            1.87387629247632        4.95787897598285       -0.06218801304542
H            0.02634692195836        3.68923264698184       -2.08419118596348
H           -1.73625697556599        5.37953559505410       -2.06922792368997
H           -4.58203929235701        4.98660105169318       -0.50474609618757
H           -3.90288049802777        5.83109978988003       -1.89349240770637
H           -5.04540180148646        6.65887520205630       -0.84208542348777
H           -4.05910683751840        5.85931530128023        1.86943858818348
H           -2.87725881256367        7.16528054120260        2.07164968743154
H           -4.43694575962289        7.49279607809297        1.32793892755762
H           -1.67167459771747        8.10157436217319        0.06956903327440
H           -3.25815497456576        8.51770510295387       -0.58505721212597
H           -2.11501775743010        7.59521793784657       -1.55903907089150
H           -1.92280113844390        5.12563184901465        2.19663714177505
H           -0.15552261568416        3.44814949446082        2.16545398222895
H           -1.45606864180518        1.61876044476368        0.01361263051175
H           -1.29336994557027       -1.85947425007696        1.99478827927035
H           -2.38931467092460       -3.03874032293383        3.83033645316635
H           -4.85967438141286       -3.22589328987462        3.89000347576719
H           -6.19659560948281       -2.14178921317627        2.13879726781744
H           -7.88633965394612       -0.00813998290039        0.96046632903582
H           -9.95303636537519       -1.28801083779388        0.66665248428743
H           -9.93624355542629       -3.41300759081319       -0.58994746804415
H           -7.81327104916294       -4.25590595658678       -1.53234899712107
H           -5.74048293474103       -2.96859925751953       -1.24190292265941
H           -6.81512903430390        1.29468523968037       -1.13915502442956
H           -7.16058963599691        3.61049586987209       -0.43408307956486
H           -6.08363176069892        4.45864163002518        1.62002781751416
H           -4.61153437541082        2.96082663331690        2.92810211856087
H           -4.28770689427636        0.64262294636871        2.24332764098278
H           -6.34908010674483       -0.47325137879196       -2.50545544748915
H           -5.12875957903912       -0.07031452692665       -4.59357618633012
H           -2.65626033306069        0.07404923924369       -4.56172062597591
H           -1.43807767130679       -0.24610451649274       -2.45900658109933
H           -0.54272460253408       -2.52416902409877       -0.21645322883816
H            1.22367083196498       -3.70241635525178        1.99250576470974
H            0.31757656985084       -5.96137373989159        1.89698080510137
