  145
       -197.79949655
 C         -0.9124759134       -7.4075416460        0.7382039078
 C          0.5700524321       -7.5362574462        0.3583559698
 C          1.3344079021       -8.2541198462        1.4799572283
 C          0.6664951491       -8.3905742303       -0.9084598356
 C          1.1510126172       -6.1447314408        0.1720506932
 C          1.7169422988       -5.7105815548       -1.0219854900
 C          2.2123370163       -4.4267443992       -1.1624468339
 C          2.1565643862       -3.5342319605       -0.0987826657
 N          2.5986532104       -2.1922901895       -0.2210668857
 C          3.9505052270       -1.9120136701       -0.3112787189
 C          4.8620628249       -2.9661875679       -0.4049033638
 C          6.2098796838       -2.7262809344       -0.5915933538
 C          6.6962264771       -1.4215852141       -0.7126332308
 C          8.1739282932       -1.2030207747       -0.9884556107
 C          8.5341718813       -1.8764204283       -2.3208725765
 C          8.9966866242       -1.8284293933        0.1474497913
 C          8.5489849148        0.2779526992       -1.0849785842
 C          5.7916931998       -0.3836647420       -0.5530902920
 C          4.4255943691       -0.5693413256       -0.2916435053
 B          3.4192438340        0.5578527152        0.0010165399
 C          3.6328666487        2.0459387265        0.3248756905
 C          4.8608986416        2.6228521372        0.6876159268
 C          5.0566081376        3.9837525936        0.8523322811
 C          6.3915526337        4.5933742245        1.2437434548
 C          6.2145344973        5.3650318275        2.5598613502
 C          6.8525375454        5.5540289515        0.1377768391
 C          7.4880145747        3.5449473495        1.4479158266
 C          3.9632332876        4.8259115063        0.6232976681
 C          2.7160949818        4.3060599638        0.3380994935
 C          2.5138731720        2.9265758413        0.2501709959
 N          1.2329459335        2.4371862961        0.0657942825
 C          0.1443806746        3.3225910024       -0.1296487514
 C         -0.5265824287        3.3121695291       -1.3509215579
 C         -1.6292053260        4.1130875576       -1.5484670255
 C         -2.1038930317        4.9630473072       -0.5479218799
 C         -3.3270334205        5.8226332655       -0.8194176357
 C         -4.5133953873        4.9182850101       -1.1845153489
 C         -3.7322030305        6.6744392970        0.3867528986
 C         -3.0138314540        6.7666318575       -1.9897278585
 C         -1.4133336211        4.9773488097        0.6596773310
 C         -0.3126555992        4.1667011294        0.8756796764
 C          0.9290040566        1.0826740340        0.0090446542
 C         -0.4001687104        0.6772062172        0.0403754550
 C         -0.7380656695       -0.6610321355       -0.1925052742
 N         -2.1148473678       -0.9547733975       -0.3181134192
 C         -2.7882286699       -1.8440784035        0.5055168906
 C         -2.1144110815       -2.8328116172        1.2244645508
 C         -2.8139252513       -3.7742193548        1.9511481854
 C         -4.1971071242       -3.7530441656        1.9733889544
 C         -4.8700031263       -2.7346452904        1.3204728049
 C         -4.1859312745       -1.7644445138        0.6064640542
 C         -4.8873261012       -0.5242886270        0.0761606558
 C         -6.3473292716       -0.7971712058       -0.2306914256
 C         -7.3767642115        0.0164304696        0.2201798396
 C         -8.6908406156       -0.2603179928       -0.1202487887
 C         -8.9921211211       -1.3472623314       -0.9206217592
 C         -7.9685195357       -2.1540828494       -1.3905386332
 C         -6.6580857314       -1.8775593745       -1.0520130791
 C         -4.7033633912        0.5246190266        1.1755084267
 C         -4.0252066691        1.7157502986        0.9559727108
 C         -3.8256178949        2.6154087151        1.9900972827
 C         -4.3109330350        2.3459674071        3.2560532106
 C         -4.9985829809        1.1651976490        3.4828854528
 C         -5.1849992011        0.2614587428        2.4544662200
 C         -4.1945379137       -0.0704122449       -1.1899442516
 C         -4.8672273555        0.6172914204       -2.1870359357
 C         -4.1954567357        1.1051449718       -3.2946133144
 C         -2.8317962370        0.8927242923       -3.4155164962
 C         -2.1473584267        0.2048464015       -2.4356709112
 C         -2.8148004333       -0.2708537054       -1.3040953747
 C          0.2730801946       -1.6041878566       -0.3664772367
 C          1.6054434191       -1.2222880868       -0.1986892940
 C          1.9713951035        0.1338556935       -0.0589891891
 C          1.6060135942       -3.9587402029        1.1074010032
 C          1.1161654696       -5.2406599372        1.2344475990
 H         -1.0364367305       -6.8840710178        1.6818423287
 H         -1.3609660253       -8.3938138523        0.8360393792
 H         -1.4529604558       -6.8560741838       -0.0284827147
 H          0.9371748357       -9.2570813924        1.6205653090
 H          2.3894993653       -8.3331786088        1.2259570931
 H          1.2506134634       -7.7200326900        2.4223959529
 H          0.2324115161       -9.3700031396       -0.7181978562
 H          1.7025947595       -8.5360686211       -1.2055943755
 H          0.1187880050       -7.9351106383       -1.7303150007
 H          1.7721801090       -6.3685124256       -1.8736742641
 H          2.6327769137       -4.1050163750       -2.1041426368
 H          4.5217634919       -3.9883355726       -0.3358836535
 H          6.8756539841       -3.5728026934       -0.6591210576
 H          9.5901380440       -1.7322284821       -2.5414016245
 H          8.3346973622       -2.9441094058       -2.2910523446
 H          7.9494763685       -1.4428299990       -3.1298131536
 H         10.0588142740       -1.6656082406       -0.0252205851
 H          8.8242593514       -2.8985609788        0.2201014571
 H          8.7274465942       -1.3744514200        1.0990111811
 H          7.9971002062        0.7717804584       -1.8814542988
 H          8.3543326565        0.7882257715       -0.1446810218
 H          9.6114126263        0.3703521561       -1.3033443963
 H          6.1297156387        0.6334355795       -0.6412547050
 H          5.6793473416        1.9446783794        0.8519796763
 H          5.8767512362        4.6925254938        3.3458437050
 H          5.4828883470        6.1614486498        2.4556767033
 H          7.1602723387        5.8078757066        2.8661658386
 H          6.1471066252        6.3687516735       -0.0002343075
 H          6.9470021532        5.0211882458       -0.8063655281
 H          7.8205208142        5.9815028545        0.3922575594
 H          8.4110063839        4.0379275581        1.7479954787
 H          7.6818852473        3.0034085595        0.5251092251
 H          7.2148667538        2.8376416246        2.2276488014
 H          4.0699564114        5.8979912091        0.6826317368
 H          1.8936841360        4.9877384340        0.1834849196
 H         -0.1772462747        2.6617181227       -2.1389856034
 H         -2.1274296777        4.0692471731       -2.5046900779
 H         -4.7651554531        4.2677956261       -0.3496270808
 H         -4.2909932263        4.2931886275       -2.0450991782
 H         -5.3843707239        5.5258690967       -1.4211017595
 H         -3.9831371524        6.0505163879        1.2417044748
 H         -2.9383305875        7.3634594508        0.6661660487
 H         -4.6120650512        7.2625224158        0.1340357241
 H         -2.7848122568        6.2112274632       -2.8948580069
 H         -2.1580982330        7.3941429000       -1.7487203998
 H         -3.8675905675        7.4100651100       -2.1910992320
 H         -1.7301507068        5.6213894309        1.4644922173
 H          0.1881942314        4.1751279444        1.8327512898
 H         -1.2006613731        1.3814474752        0.2040648409
 H         -1.0375611375       -2.8596117508        1.2238541199
 H         -2.2726734225       -4.5328836543        2.4964904841
 H         -4.7492687761       -4.5024977303        2.5195369960
 H         -5.9480649025       -2.6902785341        1.3775449735
 H         -7.1567192921        0.8750912307        0.8373369896
 H         -9.4816438294        0.3809439709        0.2414628017
 H        -10.0176775140       -1.5623005666       -1.1824738493
 H         -8.1925362582       -2.9997475076       -2.0243380225
 H         -5.8600258346       -2.5043499276       -1.4243529597
 H         -3.6485899672        1.9580185651       -0.0271159640
 H         -3.2797048804        3.5273251003        1.7970648914
 H         -4.1547733995        3.0486619031        4.0613863451
 H         -5.3857385120        0.9440489675        4.4669600718
 H         -5.7113258744       -0.6614744743        2.6465568122
 H         -5.9282104707        0.7912072770       -2.0859488705
 H         -4.7342030557        1.6490127183       -4.0557020387
 H         -2.2989332142        1.2596484782       -4.2806110339
 H         -1.0880201096        0.0249155922       -2.5385269416
 H          0.0183797473       -2.6161537716       -0.6394806204
 H          1.5676648427       -3.2704918051        1.9397790414
 H          0.6972092107       -5.5368958832        2.1838455653
