  53
  -85.9584027697000       0.294254080841464      !
 O          3.6896648817        1.9811733491        0.8776035706
 C          4.2223444421        0.9066961977        0.4655320605
 C          5.6637006008        0.7664538797        0.4626598749
 C          6.4351060227        1.8314613150        0.9679778352
 C          7.8104490879        1.7787453600        1.0023457972
 C          8.4840799808        0.6532822286        0.5424187512
 C          7.7520722324       -0.4145543257        0.0443180375
 C          6.3680444736       -0.3618282320        0.0043067868
 S          5.5672892328       -1.7894474691       -0.6511575163
 C          3.8655206676       -1.4193448035       -0.4886867699
 C          2.9791690898       -2.4103272007       -0.8899745236
 C          1.6127467621       -2.2190685744       -0.8173567430
 C          1.1052917993       -0.9961770934       -0.3406896805
 C         -0.3308593686       -0.7656029205       -0.2370535308
 C         -1.1978216320       -1.8225429689        0.0966731863
 C         -2.5580001491       -1.6473554952        0.2124723996
 C         -3.0778931376       -0.3799713716       -0.0338664524
 C         -2.2214867834        0.7031442626       -0.3563198734
 C         -0.8578758553        0.5105407707       -0.4520172452
 C         -3.0680143411        1.8582504625       -0.5039675592
 C         -2.8246736382        3.1845947528       -0.8267015552
 C         -3.8990312953        4.0526428401       -0.9025544718
 C         -5.1981454031        3.6085774642       -0.6738068578
 C         -5.4643305501        2.2899471028       -0.3505700806
 C         -4.3882044382        1.4207801734       -0.2526794723
 N         -4.3737128800        0.0654347804        0.0279409262
 C         -5.4994040392       -0.7207753106        0.3221428289
 C         -6.3862152805       -0.3228826683        1.3182418257
 C         -7.4946985701       -1.0991207101        1.6019470377
 C         -7.7222354654       -2.2736138483        0.9035046462
 C         -6.8375050563       -2.6717535525       -0.0852581290
 C         -5.7293866257       -1.8994950488       -0.3811441877
 C          1.9988166414       -0.0072558495        0.0483769532
 C          3.3922982840       -0.1810789343        0.0076528406
 H          5.8968517497        2.6962870749        1.3228011912
 H          8.3668080193        2.6210060637        1.3866766345
 H          9.5609083855        0.6042667026        0.5677437497
 H          8.2510340695       -1.3020180136       -0.3159841961
 H          3.3795360099       -3.3365425906       -1.2748848614
 H          0.9448330821       -2.9912173132       -1.1625872944
 H         -0.7760370195       -2.7940803357        0.3035632140
 H         -3.1990115931       -2.4666967237        0.5010040000
 H         -0.2086741875        1.3309943151       -0.7123028770
 H         -1.8190016774        3.5263225067       -1.0174173145
 H         -3.7314091503        5.0896355621       -1.1507910512
 H         -6.0174330295        4.3070588589       -0.7531406969
 H         -6.4764451956        1.9504616981       -0.1902748391
 H         -6.1908422219        0.5815824729        1.8752335714
 H         -8.1792241592       -0.7881798506        2.3766364673
 H         -8.5879456960       -2.8773172482        1.1289514676
 H         -7.0138213809       -3.5841170901       -0.6348634982
 H         -5.0477231099       -2.1929627402       -1.1658678190
 H          1.6489342829        0.9299159939        0.4505824886
  53
  -85.9583099644000       0.266730163809948      !
 O          3.6914381313       -0.6877475645        2.4096016050
 C          4.2440093605       -0.4406692761        1.2952096837
 C          5.6875737190       -0.3848565472        1.1980405445
 C          6.4391274912       -0.5635204922        2.3759865213
 C          7.8154656895       -0.5283920096        2.3706903728
 C          8.5098057660       -0.3025216149        1.1880749756
 C          7.7974507651       -0.1145848322        0.0126360244
 C          6.4125031774       -0.1530432574        0.0148554351
 S          5.6377356026        0.1109025244       -1.5469533932
 C          3.9294127100        0.0736232205       -1.1719089345
 C          3.0609618349        0.3172695925       -2.2279158303
 C          1.6912631992        0.2885466935       -2.0479962130
 C          1.1629240844       -0.0113815594       -0.7790952721
 C         -0.2765542652       -0.0457219490       -0.5493802231
 C         -0.8211896794       -0.9703229238        0.3612905296
 C         -2.1703689840       -1.0353492700        0.6212550850
 C         -3.0061252564       -0.1323218856       -0.0295278923
 C         -2.4827964717        0.7930980283       -0.9673724999
 C         -1.1266235634        0.8313629153       -1.2269109843
 C         -3.6080475493        1.5345754761       -1.4745005278
 C         -3.7356346342        2.5702001630       -2.3877840012
 C         -4.9973461191        3.0797110164       -2.6361939852
 C         -6.1159568976        2.5782595752       -1.9771539728
 C         -6.0126638514        1.5461496015       -1.0616825857
 C         -4.7527070317        1.0168247740       -0.8265260284
 N         -4.3682645225        0.0110514388        0.0426631111
 C         -5.2252210846       -0.7320069447        0.8706427659
 C         -4.9526857740       -0.8444779994        2.2307488467
 C         -5.7930791495       -1.5847324430        3.0417470802
 C         -6.9081414887       -2.2083948877        2.5068699889
 C         -7.1816831732       -2.0930344365        1.1536481221
 C         -6.3442890617       -1.3606462277        0.3327130311
 C          2.0383650371       -0.2590516042        0.2694793884
 C          3.4343914226       -0.2055946916        0.1243229442
 H          5.8849764550       -0.7368613321        3.2851777609
 H          8.3559256749       -0.6807271621        3.2931678754
 H          9.5875338974       -0.2735060714        1.1763978828
 H          8.3129296059        0.0670369438       -0.9188521673
 H          3.4780110933        0.5193194911       -3.2034838676
 H          1.0362952764        0.4539331332       -2.8878525942
 H         -0.1582821754       -1.6696334048        0.8459226607
 H         -2.5675414654       -1.7736531494        1.3009786569
 H         -0.7262164034        1.5522565764       -1.9224710621
 H         -2.8664869162        2.9705637766       -2.8868926182
 H         -5.1184443044        3.8855145591       -3.3439468368
 H         -7.0856399135        3.0067216228       -2.1808747628
 H         -6.8831860490        1.1753712878       -0.5421009329
 H         -4.0938419372       -0.3379354037        2.6456770492
 H         -5.5782020818       -1.6682581069        4.0963848728
 H         -7.5629040809       -2.7838136571        3.1431937894
 H         -8.0474466024       -2.5815934879        0.7328422242
 H         -6.5398011156       -1.2861126624       -0.7268055941
 H          1.6707657755       -0.4560577481        1.2636986188
  53
  -85.9581731884000       0.230788537063591      !
 O          3.7428405368       -0.8521494490        2.3539966846
 C          4.2766419334       -0.5255711517        1.2508202113
 C          5.7189473702       -0.4901943075        1.1259240721
 C          6.4913627047       -0.8068061233        2.2609594460
 C          7.8676325799       -0.7940151466        2.2285767183
 C          8.5418141899       -0.4546628669        1.0613644076
 C          7.8091759441       -0.1354123455       -0.0725783104
 C          6.4240474829       -0.1529082011       -0.0437384003
 S          5.6225823645        0.2716290653       -1.5561119349
 C          3.9210024121        0.1797585516       -1.1621937594
 C          3.0348728315        0.4873085137       -2.1862750824
 C          1.6686992563        0.4424464864       -1.9866170166
 C          1.1595932866        0.0713401594       -0.7279918871
 C         -0.2777615182        0.0247474439       -0.4872834235
 C         -0.8168836933       -0.9200497777        0.4058909579
 C         -2.1673765952       -1.0095298804        0.6523855792
 C         -3.0144026449       -0.1246453537       -0.0089092289
 C         -2.4909346900        0.8573989272       -0.8873097319
 C         -1.1332336598        0.9226254952       -1.1310226690
 C         -3.6161546214        1.6265230952       -1.3510940537
 C         -3.7472464944        2.6950792975       -2.2250407037
 C         -5.0133889499        3.1932401103       -2.4737537849
 C         -6.1363665067        2.6292086299       -1.8756674795
 C         -6.0298695256        1.5617120296       -1.0020334325
 C         -4.7601909891        1.0743857702       -0.7311301891
 N         -4.3759590112        0.0177176679        0.0759465763
 C         -5.2370091415       -0.7813062801        0.8455991793
 C         -6.1485113923       -0.1894810341        1.7148097727
 C         -6.9940328638       -0.9825869039        2.4685225597
 C         -6.9322911180       -2.3627433875        2.3672811273
 C         -6.0227967050       -2.9519813473        1.5044200329
 C         -5.1781859790       -2.1678882513        0.7405914245
 C          2.0531621141       -0.2406449669        0.2878663225
 C          3.4468369045       -0.1903728938        0.1190628115
 H          5.9524008110       -1.0650304739        3.1591747790
 H          8.4244234940       -1.0521016594        3.1173023809
 H          9.6195492220       -0.4393852557        1.0298899159
 H          8.3085268009        0.1336476724       -0.9916607838
 H          3.4351608190        0.7541195037       -3.1532343593
 H          1.0012721414        0.6531925014       -2.8060642035
 H         -0.1485757728       -1.6111880776        0.8945404074
 H         -2.5548276385       -1.7403962035        1.3454867710
 H         -0.7353154520        1.6840136491       -1.7834354704
 H         -2.8785175707        3.1236925267       -2.7008624227
 H         -5.1367420213        4.0271281455       -3.1478946609
 H         -7.1130419297        3.0302446718       -2.1005165962
 H         -6.9077728210        1.1180442176       -0.5573033439
 H         -6.1752481027        0.8861825796        1.8079177888
 H         -7.6980483399       -0.5199910440        3.1436397137
 H         -7.5909416708       -2.9782040452        2.9604829350
 H         -5.9740372581       -4.0271193030        1.4196279216
 H         -4.4830670416       -2.6208382751        0.0491502754
 H          1.7049033400       -0.4958682001        1.2757878413
  53
  -85.9580759738000       0.208227218284996      !
 O          3.7062695810        2.0057266301        0.8830360269
 C          4.2326634258        0.9176722456        0.4987942671
 C          5.6713257808        0.8144101121        0.3684219020
 C          6.4477989303        1.9531224318        0.6600476944
 C          7.8200920753        1.9440579157        0.5475458894
 C          8.4864676652        0.7922830610        0.1460060455
 C          7.7501753539       -0.3479632439       -0.1403216051
 C          6.3691375827       -0.3399923945       -0.0311315599
 S          5.5629096719       -1.8611883218       -0.4139724719
 C          3.8639965860       -1.4794246685       -0.2524599782
 C          2.9715450411       -2.4978538000       -0.5603714585
 C          1.6066120780       -2.3015196064       -0.4806861859
 C          1.1032377935       -1.0492841456       -0.0796148508
 C         -0.3317806301       -0.8018182391       -0.0070889383
 C         -1.2269839950       -1.8439672386        0.2992677468
 C         -2.5895768695       -1.6543958652        0.3447464802
 C         -3.0837149715       -0.3807567846        0.0782906202
 C         -2.2011798972        0.6831066674       -0.2381341532
 C         -0.8376755360        0.4739357625       -0.2739019466
 C         -3.0279721577        1.8340657649       -0.4915242011
 C         -2.7528673916        3.1533838556       -0.8171654731
 C         -3.8125794937        4.0294749254       -0.9694356255
 C         -5.1259404638        3.6058638826       -0.7877070038
 C         -5.4234079466        2.2948576271       -0.4604519898
 C         -4.3653722396        1.4081746987       -0.3280618485
 N         -4.3787140963        0.0667878672        0.0135792810
 C         -5.5305470373       -0.7099582298        0.2194461837
 C         -5.6650463048       -1.4705505181        1.3768432111
 C         -6.7993666841       -2.2383963047        1.5665001052
 C         -7.8039318117       -2.2484391662        0.6128217262
 C         -7.6720004796       -1.4878640478       -0.5374387613
 C         -6.5391245825       -0.7216282601       -0.7397664858
 C          2.0043953994       -0.0397271922        0.2337592710
 C          3.3968842961       -0.2098985433        0.1642075902
 H          5.9151850886        2.8384086682        0.9702015730
 H          8.3792497466        2.8408330527        0.7704714523
 H          9.5608124963        0.7777814592        0.0556339006
 H          8.2439743357       -1.2576448770       -0.4485272754
 H          3.3657846383       -3.4504844956       -0.8821357385
 H          0.9374856656       -3.0964758588       -0.7657474545
 H         -0.8303027802       -2.8209041536        0.5280843815
 H         -3.2535025710       -2.4749886137        0.5708584300
 H         -0.1733831719        1.2790247937       -0.5428737656
 H         -1.7338515367        3.4856801123       -0.9423296887
 H         -3.6207141334        5.0604743332       -1.2248900619
 H         -5.9309409929        4.3164867544       -0.8992496051
 H         -6.4435255525        1.9789074989       -0.3022617871
 H         -4.8891098635       -1.4406807015        2.1275165650
 H         -6.9010996806       -2.8258749407        2.4664348536
 H         -8.6886026407       -2.8473412793        0.7659809968
 H         -8.4507570999       -1.4960402496       -1.2851336406
 H         -6.4202720799       -0.1434923602       -1.6443504840
 H          1.6634141474        0.9219712423        0.5824015833
