  92
       -119.35819518
 C          4.7419091600       -1.6498778775        2.1162440505
 C          4.6333237472       -1.3596536656        0.6200472096
 C          5.8956131795       -1.8078563024       -0.1182386435
 C          4.3598054595        0.0985949240        0.3494684172
 C          5.2597745033        1.0693221115        0.7664817464
 C          5.0475740776        2.4093682073        0.4944001573
 C          3.9202745710        2.7978446893       -0.2100232270
 C          3.0104030166        1.8463256936       -0.6295659167
 C          3.2086284741        0.4987601466       -0.3419914833
 P          2.0848591772       -0.7853524130       -1.0279476574
 C          1.1324322505       -1.2905670478        0.4332166877
 C          1.3444340549       -0.6879652742        1.6788753539
 C          0.7537202618       -1.1917383183        2.8165803261
 C         -0.0486690346       -2.3238841299        2.7323359516
 C         -0.2523804607       -2.9386609660        1.5091063803
 C          0.3347647762       -2.4551451617        0.3501995078
 C          0.2580339630       -3.2141774099       -0.9478275415
 C          1.4949520418       -4.1117322375       -1.0704651744
 C         -1.0035026335       -4.0618532512       -1.0928665142
 C          0.9502989674        0.1812059111       -2.0583726275
 C          1.4838552452        0.5248103220       -3.2991115406
 C          0.7625910327        1.2428275158       -4.2279332487
 C         -0.5608064796        1.6060781700       -3.9186220288
 C         -1.1178414446        1.2488487584       -2.7239425719
 C         -0.4125833635        0.4681231599       -1.7715216604
 P         -1.2062602580        0.2735031087       -0.1769492634
 C         -2.6535375115       -0.8020329044       -0.4942245277
 C         -2.8581713321       -1.3090458348       -1.7783104897
 C         -3.9429356929       -2.1144806994       -2.0561124570
 C         -4.8170821953       -2.4653917439       -1.0360733516
 C         -4.5835500531       -2.0157738877        0.2520122818
 C         -3.5028683993       -1.1984366553        0.5523417302
 C         -3.2658214733       -0.7411263681        1.9677261559
 C         -3.3814053866       -1.8976685093        2.9622971523
 C         -4.2404694631        0.3702607450        2.3611659861
 C         -2.0129980621        1.8678266903        0.1896161638
 C         -3.2798192779        2.1175127582       -0.3672204791
 C         -3.8249560408        3.3812062421       -0.3293664294
 C         -3.1253269978        4.4233362321        0.2646851437
 C         -1.8746218018        4.1822665306        0.8201069256
 C         -1.3026350105        2.9244655566        0.7884395574
 C          0.0176135764        2.6337226215        1.4462760409
 C         -0.2251051269        2.2024566514        2.8939216235
 C          0.9975513141        3.8013643671        1.3969406401
 H          3.8230614419       -1.3662279208        2.6237770581
 H          5.5691097167       -1.1023402842        2.5612145689
 H          4.9092067828       -2.7126322912        2.2780377751
 H          3.7886957127       -1.9381034299        0.2281911368
 H          6.0561984921       -2.8743153667        0.0235492279
 H          5.7978228902       -1.6109854250       -1.1839506505
 H          6.7701999389       -1.2769716841        0.2493804491
 H          6.1486101707        0.7760473612        1.3051936719
 H          5.7644635045        3.1472406084        0.8234906372
 H          3.7524552269        3.8411224233       -0.4347489068
 H          2.1339543561        2.1487634117       -1.1822091104
 H          1.9835197408        0.1794174030        1.7451988875
 H          0.9262447833       -0.7218458271        3.7741685709
 H         -0.4930564230       -2.7359562257        3.6258929674
 H         -0.8566187992       -3.8307940572        1.4661144450
 H          0.2852488470       -2.4834460883       -1.7648909087
 H          2.4047498202       -3.5152617464       -1.0608519107
 H          1.4605878310       -4.6729153930       -2.0012186038
 H          1.5334112970       -4.8146941687       -0.2406800663
 H         -0.9514591875       -4.9448053571       -0.4598842627
 H         -1.8864469835       -3.4895350723       -0.8310703984
 H         -1.1029797616       -4.3984162409       -2.1225583771
 H          2.5081623377        0.2419694978       -3.5121936040
 H          1.2027271529        1.5301921163       -5.1695300498
 H         -1.1457709030        2.1608023041       -4.6383239295
 H         -2.1352115844        1.5336019576       -2.4986993145
 H         -2.1696627379       -1.0460815606       -2.5664718992
 H         -4.1078304576       -2.4714379652       -3.0620934117
 H         -5.6675601902       -3.0977885427       -1.2423304286
 H         -5.2610806400       -2.3105864713        1.0384928087
 H         -2.2414798734       -0.3472492392        2.0133880891
 H         -4.4195636581       -2.1881824005        3.1008759549
 H         -2.8225455742       -2.7589588120        2.6110809674
 H         -2.9877416932       -1.5945889294        3.9299652318
 H         -5.2665222304        0.0192644575        2.2750253544
 H         -4.0652066993        0.6721885121        3.3917690424
 H         -4.1159906743        1.2370496978        1.7206300558
 H         -3.8336930884        1.3069298863       -0.8184816249
 H         -4.8006688461        3.5579746944       -0.7598334107
 H         -3.5518880029        5.4139686966        0.3026457865
 H         -1.3495828977        4.9980135981        1.2918376198
 H          0.4603772168        1.7846058826        0.9059516739
 H         -0.7291658615        2.9959462174        3.4420494183
 H         -0.8474807328        1.3123586344        2.9211878707
 H          0.7191184610        1.9857905908        3.3879864812
 H          0.6924581812        4.5974943127        2.0716071693
 H          1.9868941046        3.4653243186        1.6984930371
 H          1.0624337985        4.2030745282        0.3889289711
