  89
       -140.63231347
 C         11.6923612748       -0.1075239847        0.1700392553
 C         10.7174305633        0.7016094365       -0.3901922531
 C          9.3902299370        0.3177212260       -0.3689963707
 C          9.0230320827       -0.8906757811        0.2244664780
 C          7.6528780473       -1.3544900984        0.2669111740
 N          7.3047470261       -2.6247542661        0.2456843860
 N          5.9914086727       -2.7100617693        0.2537206143
 C          5.4788694563       -1.4850315742        0.2965185535
 C          4.0804686131       -1.2201729847        0.3614804315
 C          3.1899393129       -2.2665668284        0.0307619298
 C          1.8407328778       -2.0767550399        0.0394542616
 C          1.2628845311       -0.8229083122        0.3802649049
 C         -0.1431854627       -0.6092796250        0.3563995987
 C         -1.0708121592       -1.6903237591        0.3781744699
 C         -2.4165930474       -1.5005731653        0.3361758960
 C         -2.9745316051       -0.1948225695        0.2529436140
 C         -4.3427958609        0.1179606215        0.1864961110
 N         -4.7873300420        1.3778993243        0.3068288182
 C         -6.1148456246        1.3269338671        0.2417293852
 C         -7.0371871292        2.4069304290        0.3564497215
 C         -6.5869867890        3.7103701153        0.5834490742
 C         -7.4856018783        4.7429459658        0.7172293288
 C         -8.8477113350        4.4741453112        0.6271035346
 C         -9.3015753311        3.1923775505        0.3995126216
 C         -8.4169510252        2.1153075122        0.2515012987
 C         -8.8629985275        0.7560310630       -0.0074045328
 C        -10.2169920969        0.4484577655       -0.1720307942
 C        -10.6527669926       -0.8311102249       -0.4378578884
 C         -9.7334467860       -1.8708500492       -0.5620778741
 C         -8.3956697151       -1.6168666384       -0.4056852929
 C         -7.9263458382       -0.3196670731       -0.1183671878
 C         -6.5599974675       -0.0061245824        0.0481264174
 N         -5.4206889666       -0.7649792781        0.0201548348
 C         -5.3386088278       -2.1587441606       -0.1799896240
 C         -5.6381756552       -3.0290888028        0.8645497952
 C         -5.5485263861       -4.3941958892        0.6629975012
 C         -5.1635282080       -4.8926249356       -0.5716868239
 C         -4.8684786031       -4.0246036504       -1.6104453402
 C         -4.9549493705       -2.6572347384       -1.4207682256
 C         -2.0526948468        0.8956702492        0.2653116288
 C         -0.7115509896        0.6978575566        0.3157706902
 C          2.1708142869        0.2025059439        0.7564073336
 C          3.5224319995        0.0132644102        0.7561822793
 N          6.5202616149       -0.5754497573        0.3018034562
 C          6.4739345796        0.8263644213        0.3637224655
 C          7.0356343519        1.4659043038        1.4446715596
 C          7.0153630932        2.8619413182        1.5272988781
 C          6.4333902345        3.6044098234        0.5361618152
 C          5.8577192808        2.9812831005       -0.5915915946
 C          5.2596025805        3.7275521470       -1.6280628504
 C          4.7214331192        3.1054375715       -2.7205904370
 C          4.7650899325        1.7088472734       -2.8303048143
 C          5.3324644932        0.9530076303       -1.8409108248
 C          5.8816901691        1.5653926846       -0.6970429397
 C         10.0140889089       -1.7139038721        0.7642901183
 C         11.3366457344       -1.3209869183        0.7389907823
 H         12.7265851099        0.2020122263        0.1546310041
 H         10.9918817502        1.6389310297       -0.8516251452
 H          8.6470081273        0.9462076247       -0.8341555198
 H          3.6173235276       -3.2170188777       -0.2470861939
 H          1.2010311976       -2.8903964733       -0.2631244082
 H         -0.6986501819       -2.6978889936        0.4783827903
 H         -3.0633357288       -2.3594564121        0.3995565980
 H         -5.5224432234        3.8706112539        0.6538866568
 H         -7.1419864262        5.7508269959        0.8943816861
 H         -9.5610031391        5.2779855695        0.7367308338
 H        -10.3667721074        3.0359211437        0.3402356199
 H        -10.9568634599        1.2289700168       -0.0985761318
 H        -11.7077547277       -1.0263564205       -0.5576943255
 H        -10.0722394988       -2.8717514332       -0.7833280707
 H         -7.6878467486       -2.4221186617       -0.5150148105
 H         -5.9365102359       -2.6268605704        1.8215918368
 H         -5.7770615897       -5.0697065933        1.4733434976
 H         -5.0937321570       -5.9587721763       -0.7237860288
 H         -4.5705649227       -4.4122095717       -2.5727771205
 H         -4.7227547985       -1.9694864130       -2.2202287467
 H         -2.4673954321        1.8895057453        0.2131767851
 H         -0.0571971650        1.5548351552        0.2802361990
 H          1.7852051444        1.1507160092        1.0964253001
 H          4.1640108438        0.8119952673        1.0922972752
 H          7.4912237445        0.8815929487        2.2305180801
 H          7.4577589185        3.3433411790        2.3860444540
 H          6.4083986531        4.6821159502        0.6006837392
 H          5.2357204396        4.8041455059       -1.5403174148
 H          4.2644829971        3.6856754735       -3.5083274032
 H          4.3464706952        1.2295389163       -3.7025731271
 H          5.3630010878       -0.1217899433       -1.9348707894
 H          9.7192541730       -2.6553963661        1.2000517709
 H         12.0948312855       -1.9611608629        1.1648174452
