89
 energy: -140.690370529507 gnorm: 0.000057653916 xtb: 6.7.1 (edcfbbe)
C           11.69808343856145        0.09282680273948        0.12800046240595
C           10.70558574077280        0.77646792237076       -0.55562345658235
C            9.38840241940390        0.36478204282971       -0.47388030924434
C            9.04825921933481       -0.74141368712333        0.30536558177391
C            7.68756017555129       -1.22520640145243        0.41988829922097
N            7.36958412516291       -2.49226473092245        0.56947818657616
N            6.05249875770698       -2.60243282469431        0.60739366070253
C            5.51827177463735       -1.39405554019576        0.49722834312386
C            4.11470226762356       -1.14543907971170        0.54695172542674
C            3.23321319859117       -2.22365051498725        0.30662544523011
C            1.88155181540655       -2.04885063324308        0.30888892764880
C            1.28619821223524       -0.78046941580528        0.56194999487082
C           -0.12220885933020       -0.58610278985506        0.53131354224461
C           -1.04046423423846       -1.67814755817384        0.56166956758948
C           -2.38722624742179       -1.50675750301078        0.49493849594607
C           -2.96431332974002       -0.20993968828657        0.38520434286137
C           -4.33366146486185        0.08151361797395        0.27617396743913
N           -4.79813838959170        1.33950186383679        0.36292403049828
C           -6.12089351882872        1.27199429982358        0.23200475708672
C           -7.05946845779464        2.34333973576716        0.28549330055925
C           -6.63866369963920        3.65374786448760        0.53180072683844
C           -7.55454570806137        4.67779403497442        0.60256397823904
C           -8.90581899031403        4.39400232064396        0.42893182533909
C           -9.33103872756185        3.10573360250786        0.18193360916721
C           -8.42755818408787        2.03704786289155        0.09670642470600
C           -8.84325872823066        0.67104653845619       -0.17890111989901
C          -10.18013454766694        0.35020908245340       -0.43599239775133
C          -10.58637698311124       -0.93663970924007       -0.71560053196287
C           -9.65344335845980       -1.97126779330158       -0.75537720364272
C           -8.33176150768640       -1.70360472715601       -0.50769047079455
C           -7.89227897616701       -0.39741105681040       -0.21237219447613
C           -6.54046430337893       -0.06822488867015        0.02997350960982
N           -5.39354203426943       -0.81574562845760        0.07215748197564
C           -5.29250175333693       -2.21629497306970       -0.09447864236695
C           -5.58920647800026       -3.06359245922097        0.96947999799979
C           -5.49004155346792       -4.43310935442492        0.80008634111743
C           -5.09794766925180       -4.95755232449159       -0.42164034541268
C           -4.80344045331644       -4.11179331339215       -1.47907722589330
C           -4.89953470300251       -2.74034774328475       -1.32158777398121
C           -2.05455820938578        0.89242467716089        0.40420063226612
C           -0.71184253702932        0.71317069185169        0.46991333533020
C            2.18802382439941        0.28043140956399        0.85164637347620
C            3.54198207674675        0.10722230653090        0.84841491403791
N            6.53915913405132       -0.46836204606456        0.36826047702482
C            6.45474569396162        0.92972546148125        0.23303479407259
C            6.99894070833853        1.73103551009810        1.20927487443514
C            6.93010789869674        3.12487073957940        1.09946311741674
C            6.31325113728116        3.70301447093635        0.02427222280184
C            5.75252752875082        2.91108258028238       -1.00068323605116
C            5.11733488695775        3.48777120200878       -2.12073079698865
C            4.59539925548515        2.70464601468588       -3.11264364934917
C            4.69558676703057        1.30801166101395       -3.03553022246654
C            5.30060127809279        0.71520881215735       -1.96129512299099
C            5.83088398995785        1.49523056763864       -0.91361045080663
C           10.05755787278090       -1.44036008689957        0.97208500465520
C           11.37045306166942       -1.02216825156422        0.88496158851441
H           12.72440424488507        0.42231110195304        0.06400034879664
H           10.95729520494220        1.63470027341579       -1.16136995097184
H            8.62949796559602        0.89163742553918       -1.03306682360468
H            3.66744758420478       -3.19025366944018        0.10051826229486
H            1.25442191574211       -2.89443517673862        0.07585499697108
H           -0.66087530786453       -2.68071328807187        0.68064220108718
H           -3.02454422422313       -2.37312967918977        0.55611716409485
H           -5.58217457316712        3.82761265423394        0.66692941986677
H           -7.23178326120519        5.69013534008863        0.79395523138195
H           -9.63252218931598        5.19123580069285        0.48873104929196
H          -10.38862937397402        2.93682393858823        0.05907759613131
H          -10.92862229401380        1.12562606722605       -0.42592845643438
H          -11.62855877189953       -1.14139111868834       -0.91006756976842
H           -9.96824861835956       -2.97865568954201       -0.98311865980219
H           -7.61191988757054       -2.50409860300134       -0.54902084479026
H           -5.89343624262726       -2.64198698264879        1.91639587444597
H           -5.71831027036941       -5.09055872842576        1.62528764488277
H           -5.02138129779207       -6.02662957495995       -0.54914890207051
H           -4.49850816568207       -4.51890560677088       -2.43118841828451
H           -4.67036272591299       -2.07036410394130       -2.13710078144554
H           -2.47964653838143        1.88156458556276        0.33894442644228
H           -0.07383691710986        1.58201970913895        0.43707884486785
H            1.79956059839395        1.24959289138558        1.12166409178642
H            4.17854917280747        0.93871796994695        1.11121060206999
H            7.47626093809180        1.27683129008969        2.06596857418544
H            7.36219034833912        3.73336215797311        1.87928015623404
H            6.24858538780101        4.77775441693114       -0.05846269987520
H            5.05269237948079        4.56464080613773       -2.17805199060697
H            4.10856496059388        3.15481451969276       -3.96507844556331
H            4.29223944122007        0.69873882830132       -3.83067790659301
H            5.37711300356807       -0.36185129337983       -1.91354513481400
H            9.78656217834512       -2.30795123834713        1.55422365969727
H           12.14213107192445       -1.56593671093599        1.40969621706387
