89
 energy: -140.773751042085 gnorm: 0.000071669143 xtb: 6.7.1 (edcfbbe)
C           11.51095565593395        0.27307092168691       -0.08917098227978
C           11.27550009439985        1.60506442672768        0.21445541123902
C            9.99920308546391        2.02987341787651        0.53021242115073
C            8.93976393977397        1.12299061412923        0.53965948807772
C            7.61348155272129        1.60633206635094        0.88440056063770
N            7.37052351936575        2.55821278411562        1.74954208597697
N            6.04619402839153        2.72018105919299        1.84001190309737
C            5.46916155716332        1.87376350945065        1.02561235566270
C            4.03425150281777        1.75045778932919        0.83609041572717
C            3.19417781885947        1.94382929458622        1.93252349954015
C            1.82833701829929        1.80973611925900        1.79757515420314
C            1.26180341487350        1.50199183079624        0.56107040105431
C           -0.19328653275734        1.35116114447403        0.41720605375465
C           -0.92489869220270        0.61530338994192        1.34690449177632
C           -2.28799741331872        0.44985335214652        1.20563153236777
C           -2.95968046937284        1.02883060390514        0.13040453761392
C           -4.39620324576839        0.88995784774390       -0.05790737160425
N           -5.17294698453131        1.87170264387896       -0.44522683251549
C           -6.43098549616550        1.35574244582140       -0.48981908055188
C           -7.64080899966375        2.03339102331614       -0.81014554605241
C           -7.65032149791470        3.39937798741360       -1.11421644874115
C           -8.83256044331977        4.04288522018582       -1.38365189249648
C          -10.02617238082074        3.32407497396550       -1.34738561974103
C          -10.02821153502388        1.97960434992392       -1.05657836429756
C           -8.83966224317076        1.28387026246235       -0.78450377820836
C           -8.80624247454538       -0.14156393963603       -0.50321038012810
C           -9.96602684926690       -0.92863007900216       -0.55643940717131
C           -9.93972557887909       -2.28442397747995       -0.32864703742126
C           -8.73507969069304       -2.92204335043511       -0.04834381097808
C           -7.57699963870259       -2.18697048052206        0.01821179949896
C           -7.58534041367279       -0.79948794488947       -0.18708002740514
C           -6.41345438044988        0.00784091482493       -0.13516364795755
N           -5.09703542994789       -0.27572136873888        0.15421598182783
C           -4.51814173577246       -1.49467754477550        0.57055042850410
C           -4.83957420323806       -2.03320015934234        1.81302072586778
C           -4.24040246874386       -3.21005433844779        2.22403542876026
C           -3.31881058040992       -3.84558467624414        1.40673887545636
C           -2.99610360459511       -3.30426528036191        0.17342237844935
C           -3.59308785103158       -2.12949622178079       -0.24921172618822
C           -2.23577028416600        1.79668375196294       -0.78208653624676
C           -0.87112092159694        1.94452315733419       -0.64696093601461
C            2.10303763349489        1.34381679633964       -0.53810836459065
C            3.47199476684405        1.46009585411972       -0.40502049163319
N            6.42760309296150        1.12511611160522        0.38333689983334
C            6.23886241206480        0.12446311092106       -0.59062459675367
C            6.75133412983389        0.31116241039347       -1.85120768739102
C            6.56054788252876       -0.66039759730272       -2.84214528849256
C            5.85343337989811       -1.79708807982721       -2.56547242915633
C            5.31893142522470       -2.02250862191687       -1.27904653209426
C            4.59275974178100       -3.19292642159239       -0.97193165158242
C            4.09770099877640       -3.40206698603386        0.28460684789724
C            4.32063228822034       -2.45724510318174        1.29769754764906
C            5.01809746835591       -1.31106179916640        1.03495532978475
C            5.52082639942728       -1.05554843564008       -0.25799732232481
C            9.18580411095134       -0.21845949290633        0.25421096235676
C           10.46614265534402       -0.63589735113554       -0.06086659705935
H           12.50807590917291       -0.05736254060864       -0.33949303364918
H           12.08947277378867        2.31476294150295        0.20445893600051
H            9.79957555481415        3.06236145340763        0.77351172725712
H            3.63500047924633        2.19462309957619        2.88558296368916
H            1.18757429958644        1.96386018637179        2.65310630409904
H           -0.41547784508360        0.15288042570349        2.17937788233042
H           -2.83328051187197       -0.11623028268757        1.94551762926882
H           -6.70555739518023        3.92165184242566       -1.12074574958103
H           -8.84265427877162        5.09785319855272       -1.61554384407746
H          -10.96061189540651        3.82759891066270       -1.54996299216326
H          -10.97630651819763        1.46613206028031       -1.03600311907335
H          -10.91324229075818       -0.47110069159409       -0.79192187117238
H          -10.85457158465283       -2.85662623470749       -0.37879418836062
H           -8.70871871574769       -3.99004182216188        0.11059758898715
H           -6.64255227123699       -2.68644119273154        0.21824528907010
H           -5.55607137558367       -1.52626643122824        2.44344583847898
H           -4.49173965627461       -3.62773959148806        3.18731630872144
H           -2.85209295695226       -4.76252764118500        1.73304412967870
H           -2.27832315444391       -3.79655811816431       -0.46507104312651
H           -3.34830607210252       -1.69788611473626       -1.20858805756812
H           -2.76418657473699        2.26765834890070       -1.59709113430841
H           -0.32307918329264        2.54357227900142       -1.35927104372551
H            1.68026255970524        1.10822717654758       -1.50358120363414
H            4.10255755976029        1.33910796308723       -1.27349946377003
H            7.30024949669450        1.21473895643141       -2.07563656562136
H            6.97315521921413       -0.49312099476442       -3.82532244559897
H            5.69412476149199       -2.54318627061278       -3.32968279220049
H            4.43766023719297       -3.92240547598486       -1.75342478757839
H            3.54066701431516       -4.29910691131750        0.51060675409969
H            3.93995058657518       -2.64034189996069        2.29148211865925
H            5.19385031424312       -0.59585153823608        1.82571525014001
H            8.38297298832651       -0.94022249418054        0.29477147326491
H           10.64721099204484       -1.67765753184513       -0.28127898919852
