  75
       -122.41141606
 C         -9.6873843853       -0.9968156746       -0.2555316771
 C         -9.4130672734        0.1864909408        0.4125054513
 C         -8.1016552822        0.6160179576        0.5064179536
 C         -7.0945169277       -0.1571752360       -0.0760838386
 C         -5.6768680537        0.2307565110       -0.0131670720
 C         -5.2894666589        1.5600629797        0.1174267920
 C         -3.9428084590        1.9127595494        0.1832508562
 C         -3.5859904435        3.3335844857        0.3123873212
 C         -2.3392721077        3.8284533389       -0.0784034017
 C         -2.0770428272        5.1777376106        0.0731121850
 C         -3.0591389272        5.9993146820        0.6047990291
 C         -4.2703121495        5.4184812009        0.9493371097
 N         -4.5290605392        4.1341017597        0.8086050826
 C         -2.9779285119        0.9141977399        0.1330343903
 C         -3.3527360365       -0.4189785377       -0.0108199448
 C         -2.3217506361       -1.4588707432       -0.0683344376
 N         -1.0426878284       -1.0395805512        0.0052874965
 C         -0.0795984226       -1.9288662832       -0.0221634293
 C          1.2875456893       -1.3932949782       -0.0367947903
 C          2.2650836396       -1.9032694871       -0.8888336025
 C          3.5333354228       -1.3577525569       -0.9023049472
 C          3.8484888499       -0.2950853298       -0.0601063765
 N          5.1464013312        0.2566171938       -0.0681386068
 C          6.2454775062       -0.5058366939        0.3328118328
 C          6.1176113411       -1.8136441992        0.7831343823
 C          7.2298599751       -2.5406890047        1.1800183134
 C          8.4856395892       -1.9702043505        1.1438418385
 C          8.6270380172       -0.6557481348        0.7233877780
 C          7.5215727856        0.0736816757        0.3279541953
 O          7.7377277064        1.3767200134       -0.0459859606
 C          6.6463609049        2.1138422439       -0.4342345083
 C          6.8780966368        3.4207503216       -0.8198542075
 C          5.8300437631        4.2193669777       -1.2537327509
 C          4.5555513028        3.6943429423       -1.3145695025
 C          4.3171157958        2.3842970569       -0.9272650898
 C          5.3505221928        1.5813271894       -0.4616471740
 C          2.8696773090        0.2283644677        0.7812839239
 C          1.6001856121       -0.3101147434        0.7827055913
 C         -0.3642405732       -3.3244651568       -0.0455476050
 C          0.5802367095       -4.3582880961        0.0862412365
 C          0.1814692913       -5.6649006344        0.0041004088
 C         -1.1687444139       -5.9903696702       -0.2030203681
 C         -2.1177040190       -5.0108740672       -0.2892494613
 C         -1.7413741036       -3.6549135461       -0.1899661605
 N         -2.6947707479       -2.7077323330       -0.2148254836
 C         -4.6987977971       -0.7564871706       -0.0926684789
 N         -7.3657398116       -1.3009654295       -0.7021322263
 C         -8.6179953478       -1.7010611793       -0.7888912969
 H        -10.6969268229       -1.3647737102       -0.3527673384
 H        -10.2110173123        0.7645929596        0.8572624461
 H         -7.8593109552        1.5221980688        1.0386619227
 H         -6.0178045834        2.3549656512        0.1493909212
 H         -1.5990529440        3.1732999048       -0.5090822041
 H         -1.1206101005        5.5850245183       -0.2225542673
 H         -2.8931686923        7.0564189530        0.7416840921
 H         -5.0774817893        6.0120432811        1.3603696863
 H         -1.9269899089        1.1404767821        0.2156478861
 H          2.0197534326       -2.7022125963       -1.5729731412
 H          4.2867853044       -1.7444913552       -1.5727106780
 H          5.1393837999       -2.2656956695        0.8333161783
 H          7.1009436985       -3.5562983772        1.5215875610
 H          9.3543700754       -2.5319502256        1.4487165906
 H          9.5912397933       -0.1735414667        0.7006253145
 H          7.8888266378        3.7938334610       -0.7778348485
 H          6.0202127938        5.2389217679       -1.5496779879
 H          3.7327922838        4.2969588588       -1.6676645901
 H          3.3189816333        1.9809530801       -0.9959821097
 H          3.1151778462        1.0563144823        1.4300013329
 H          0.8352236224        0.0894792738        1.4305497956
 H          1.6149195065       -4.1116981683        0.2737938305
 H          0.9072515020       -6.4585102265        0.1043122161
 H         -1.4537176932       -7.0300191126       -0.2740438369
 H         -3.1647524790       -5.2369038391       -0.4136914463
 H         -4.9862505875       -1.7880609804       -0.2136412187
 H         -8.7703784085       -2.6371712741       -1.3118020814
