75
 energy: -122.351543149226 gnorm: 0.000073448555 xtb: 6.7.1 (edcfbbe)
C           -9.64951276222339       -0.95098704778110       -0.29149825250013
C           -9.37473282117464        0.20151291408416        0.42838139409016
C           -8.06168471494501        0.61716699875591        0.55503371225522
C           -7.05318450052207       -0.13723523534387       -0.04927845514571
C           -5.63416525957308        0.23915924179875        0.04080930989855
C           -5.23973178601195        1.55947121247153        0.23265207282212
C           -3.88947926367782        1.89932081161758        0.31852789006137
C           -3.52453073229633        3.31070552378777        0.51035893317219
C           -2.27547429286311        3.81600083943522        0.14038690853900
C           -2.00452326110694        5.15526364875298        0.35267852498544
C           -2.98069410593972        5.95776474904524        0.92288977716117
C           -4.19503401729446        5.36902788973269        1.24186420354342
N           -4.46178105003149        4.09404250340322        1.04358530199499
C           -2.93152801796236        0.89903480425314        0.22763425214955
C           -3.31240862957323       -0.42701888051698        0.02409568928427
C           -2.29939541789818       -1.46151019051815       -0.08598540430224
N           -1.03058506787773       -1.15304319658460        0.04164869787035
C           -0.03569495679940       -2.03359864028845       -0.09110721415610
C            1.29539060117012       -1.48238045831971       -0.09089688566031
C            2.36051709469932       -2.04225296131853       -0.81553480285613
C            3.60613522222953       -1.45681988708793       -0.80743729553712
C            3.83223710169644       -0.29134440450188       -0.07867178150168
N            5.12163285452611        0.30141639452918       -0.06420360596682
C            6.17319491390323       -0.32094001190977        0.59335455073184
C            6.00840278356633       -1.51686033450503        1.28634688219116
C            7.07987058292928       -2.11246556777631        1.92879662565266
C            8.33139451083605       -1.52426692266037        1.89762450889652
C            8.50954947908014       -0.32317635476675        1.22934368265866
C            7.44312520309248        0.27929545408466        0.58595203173256
O            7.68110913727916        1.47489582180945       -0.03779872943055
C            6.63044797237130        2.08002173172138       -0.67414187615673
C            6.88066768749777        3.28702081369971       -1.30246640401619
C            5.86571992023198        3.94221022972023       -1.98186324988705
C            4.60414899439600        3.37804796569691       -2.03964216221076
C            4.34532690190720        2.17152315991101       -1.41274120045031
C            5.34712520775879        1.50974730608384       -0.70826011508783
C            2.77890350834749        0.29798913319828        0.61988107847769
C            1.53359369955374       -0.28081168388554        0.60384649668681
C           -0.35520849302773       -3.43542846354257       -0.23481327657294
C            0.53756166034670       -4.49898931729720       -0.16261197254256
C            0.09903873253995       -5.80372096990011       -0.33320534816691
C           -1.24144398586503       -6.06449566195282       -0.56317720563450
C           -2.16294558774950       -5.03315385045091       -0.57263715292302
C           -1.74857428597134       -3.71221438984266       -0.38496200845672
N           -2.65566121976935       -2.72412252992387       -0.32133462173889
C           -4.66296151928236       -0.74923956984437       -0.07840303175404
N           -7.32517476144477       -1.25269360343566       -0.72463612506754
C           -8.57881974793540       -1.64074743276490       -0.84067427830982
H          -10.66041874868011       -1.30666163466343       -0.41665630426144
H          -10.17382690767724        0.76630538938940        0.88789022996600
H           -7.81884555039857        1.49824862890208        1.12761068316516
H           -5.96290327973620        2.35668213784015        0.29615957808152
H           -1.53975749248806        3.17713071773446       -0.32199943836417
H           -1.04597903729312        5.57002443717145        0.07342069863726
H           -2.80807567843526        7.00659005447207        1.10740640950173
H           -4.99843250654598        5.94820622264625        1.68026355628446
H           -1.87901259039154        1.11655363283510        0.32277777921957
H            2.19182840966172       -2.90964760672640       -1.43411926785830
H            4.41574535583062       -1.88910057626487       -1.37816649053262
H            5.03247840471754       -1.97425644464380        1.32277946949389
H            6.92874816411424       -3.04067962034387        2.45762209912817
H            9.16762729717406       -1.98881193225873        2.39540953813430
H            9.46940141273504        0.16684988518235        1.19782985389180
H            7.87775136229300        3.69391666195803       -1.25068640253048
H            6.06789027812126        4.88352448173279       -2.46765457157598
H            3.81127789792946        3.87399785628486       -2.57774151545014
H            3.36276134341853        1.73091249395110       -1.47082215940604
H            2.95520948486435        1.20778000111210        1.17578301966825
H            0.71662664111013        0.16811409581815        1.14735047481689
H            1.57569025187413       -4.31376750026434        0.06558195951754
H            0.80888792882294       -6.61552604335200       -0.27791745500034
H           -1.57696214619365       -7.08008596558828       -0.71224411249925
H           -3.21430923537161       -5.22232041978878       -0.72037390098651
H           -4.95904963165075       -1.77279223463276       -0.24405715145541
H           -8.73170160297945       -2.55285007687012       -1.40428729802174
