75
 energy: -122.351923217727 gnorm: 0.000060718076 xtb: 6.7.1 (edcfbbe)
C           -9.79852344257792       -0.31769697171836       -0.18828846044441
C           -8.99630656985052       -1.38018801159059        0.19854726941760
C           -7.62949861320691       -1.19115924030068        0.29034011198331
C           -7.09799866665476        0.06468706235484       -0.01271126050627
C           -5.65625081833459        0.34559517414273        0.05770991227276
C           -5.23862613431886        1.66249650150560        0.24623254199542
C           -3.88544957753668        1.98040214356395        0.32084553449330
C           -3.42134368693515        3.36271856607611        0.51132991313649
C           -4.19494540922430        4.46609080928288        0.14266315536200
C           -3.69100048605580        5.73690373391058        0.35164470547817
C           -2.43301025254403        5.87788860645814        0.91707013620787
C           -1.73443597174588        4.72257919339374        1.23410988872118
N           -2.20628504401524        3.50805012125237        1.03914179293947
C           -2.94461235917542        0.96204674164749        0.21984289280221
C           -3.34652574320915       -0.35588418171646        0.02021042159259
C           -2.35813833340563       -1.41297558035475       -0.09692795574620
N           -1.08269340926545       -1.13245814417146        0.01317187378610
C           -0.10746680689142       -2.03571416731915       -0.09970481847590
C            1.23670720996260       -1.51772858233415       -0.11260183767911
C            2.29333471888086       -2.13328138481127       -0.80287060112604
C            3.55455526129459       -1.58112865556086       -0.80217505065466
C            3.80102374563236       -0.39345750569443       -0.11867080334857
N            5.10799731815908        0.16419706267039       -0.11178579972288
C            5.89245818982090        0.09672594552784        1.02911079582882
C            5.44500218057721       -0.51361932191012        2.19735145448701
C            6.25476660987015       -0.56484833128988        3.31851763866622
C            7.52356769163749       -0.01410242751407        3.29289490822672
C            7.99012567666654        0.58613749985545        2.13384969217082
C            7.18738901912231        0.64116349851311        1.00836871595024
O            7.71091931414447        1.23400375079160       -0.10961442908220
C            6.91903886094084        1.29870923483780       -1.22511497905544
C            7.44912386005134        1.91155962244514       -2.34654744326724
C            6.69231525934882        2.02191842184470       -3.50255201235622
C            5.40134750543398        1.52525403376170       -3.52859209613004
C            4.86383656188102        0.90966294520876       -2.41173343517815
C            5.61508217481808        0.77653729147307       -1.24751615192098
C            2.75630619123922        0.25326664923759        0.54003276486273
C            1.49708224848118       -0.29492614119636        0.53602315792799
C           -0.46176067119118       -3.43400016084934       -0.19837059368775
C            0.40334286930602       -4.51695203994367       -0.08594058681733
C           -0.06599255652064       -5.81482203105349       -0.22358739264315
C           -1.40990063559609       -6.04891369833995       -0.46067145288198
C           -2.30505551298134       -4.99549336916790       -0.50669812796610
C           -1.86039964191813       -3.68032547479151       -0.34987357538541
N           -2.74705851702181       -2.67081043749940       -0.31497109784369
C           -4.70496718652074       -0.65838520064208       -0.06762922452914
N           -7.87933258783068        1.08458741900060       -0.36735100664886
C           -9.18056256704009        0.89526061876729       -0.45236424369977
H          -10.86849477412224       -0.42476778053214       -0.27549257190566
H           -9.43192169546468       -2.34227477463798        0.42922527718477
H           -6.98671903620600       -1.99612681234455        0.60944482461914
H           -5.99943667977577        2.41909951109582        0.35169700993523
H           -5.16164625382955        4.32968124320969       -0.31527015018268
H           -4.26941362146352        6.60693214515684        0.07395178844361
H           -2.00558424625496        6.85161452708835        1.09954526504046
H           -0.74324897720493        4.77087187599402        1.66834313281941
H           -1.89490682102953        1.19901938138012        0.28665768532524
H            2.11003634804513       -3.02229615214612       -1.38557838071732
H            4.36035975955453       -2.05905914764617       -1.34109018037872
H            4.45888902229231       -0.94988346271234        2.21838972333680
H            5.88726307367192       -1.04112760254387        4.21413828563071
H            8.15480878215063       -0.05258958900116        4.16639418081341
H            8.97741566629874        1.01610796786037        2.08056051475399
H            8.45438786636612        2.29755555936779       -2.29264417483899
H            7.11261995390321        2.49986460038353       -4.37310722779596
H            4.80193653783824        1.61645886781739       -4.42100582525867
H            3.85416522377397        0.53108434459359       -2.43249986702858
H            2.94833567951023        1.18584961081780        1.05055500862959
H            0.68352192466820        0.20219425984603        1.04098389908517
H            1.44368258326559       -4.35161112581381        0.14676021028301
H            0.62285465176804       -6.64198842354196       -0.13840810374811
H           -1.76945574380034       -7.05962659591018       -0.58541514323596
H           -3.35976652475346       -5.16465925652397       -0.65661843268886
H           -4.98620257912922       -1.68387544536457       -0.25071406617601
H           -9.75705541943237        1.76309770587813       -0.74856388643478
