75
 energy: -122.411487908782 gnorm: 0.000047946794 xtb: 6.7.1 (edcfbbe)
C           -9.68326984475645       -1.00387106434050       -0.27326680794079
C           -9.41387932702756        0.18284525121412        0.39081383315626
C           -8.10341007422742        0.61413934335614        0.49020660340960
C           -7.09255729920184       -0.16000659891660       -0.08433526863434
C           -5.67580605055924        0.23074692356828       -0.01957561611627
C           -5.29033084714422        1.56107414860427        0.10560593714847
C           -3.94411059998514        1.91614056316502        0.17042008708932
C           -3.59026796155829        3.33772215983846        0.29982703736860
C           -2.34157780805373        3.83511251483484       -0.08115940796941
C           -2.08160667605592        5.18432526285458        0.07606103368718
C           -3.06800755880403        6.00342524650818        0.60330452025866
C           -4.28131036467408        5.42048817412904        0.93680732972599
N           -4.53768550170935        4.13627506801969        0.79115628750472
C           -2.97756605067350        0.91887153683164        0.12290201706198
C           -3.35079201707344       -0.41553832228503       -0.01346791173217
C           -2.31991039982090       -1.45579506349495       -0.06454076814011
N           -1.04069374781595       -1.03780856910187        0.01142898810177
C           -0.07868822504543       -1.92850692867250       -0.01216359135572
C            1.28884435840463       -1.39368142932280       -0.02233794316351
C            2.26744471896668       -1.89997170339346       -0.87522195971549
C            3.53475624749857       -1.35247875294925       -0.88653516422334
C            3.84855741518274       -0.29225340906708       -0.04057324458538
N            5.14527220419216        0.26169721051561       -0.04890131114740
C            6.24852559225224       -0.50795555615525        0.32621352761339
C            6.12247881746698       -1.81590469296125        0.77674595442964
C            7.23879820505474       -2.55153293883895        1.14519515658322
C            8.49723779700992       -1.98957494889478        1.08013047789626
C            8.63729929529568       -0.67430277714593        0.66178565456104
C            7.52762694399728        0.06385409724636        0.29550202738031
O            7.74286225578121        1.36758055956691       -0.07636197500275
C            6.64735298792554        2.11279700501892       -0.43633014797339
C            6.87858161382553        3.42087589051029       -0.81843342218492
C            5.82664647076548        4.22799778707051       -1.22630047952833
C            4.54841971267489        3.70994142132108       -1.26522086892865
C            4.31052250139378        2.39885244625795       -0.88110834354405
C            5.34827567060712        1.58734122181446       -0.44047510699840
C            2.86937600090878        0.22563049035903        0.80382490599351
C            1.60034208890266       -0.31400861284504        0.80216735776784
C           -0.36471727411805       -3.32374556578615       -0.03456136622117
C            0.57869324975295       -4.35850718409017        0.09830943431926
C            0.17786000347904       -5.66486353652685        0.02180269869806
C           -1.17334320529989       -5.98937782049729       -0.18071277081012
C           -2.12095413202667       -5.00888059163874       -0.26976494875377
C           -1.74228049962867       -3.65308061047491       -0.17709606126464
N           -2.69430623693349       -2.70478995672083       -0.20612412322522
C           -4.69636817056004       -0.75545248238327       -0.09287391624234
N           -7.35903037230150       -1.30751667236695       -0.70569179564738
C           -8.61014986552622       -1.71005142085194       -0.79643975981876
H          -10.69196227872651       -1.37276270967301       -0.37574680020697
H          -10.21484864824991        0.76207774471451        0.82845937711843
H           -7.86457770794857        1.52272141964581        1.01994417966704
H           -6.01995381206876        2.35485661927969        0.13454060483641
H           -1.59744869286484        3.18203334529145       -0.50864741591641
H           -1.12342918870747        5.59355277978170       -0.21206378687621
H           -2.90392013333143        7.06023038384469        0.74486903885762
H           -5.09237143001064        6.01204006418694        1.34333395002485
H           -1.92672651738114        1.14679173719780        0.20255132470746
H            2.02362396587072       -2.69702592512183       -1.56214493345573
H            4.28877058895096       -1.73583008891048       -1.55827585857838
H            5.14264401400047       -2.26141096481752        0.84899601526959
H            7.11103273825718       -3.56715925892526        1.48712491621245
H            9.36930785415893       -2.55836228775659        1.36144055883233
H            9.60391850941409       -0.19854161279848        0.61782736895133
H            7.89225837115949        3.78766896280983       -0.79506592830227
H            6.01658326558097        5.24821877040995       -1.52007536741009
H            3.72221511004030        4.31867342494636       -1.59912970329113
H            3.30901450509636        2.00160374606964       -0.93346224270124
H            3.11398443574258        1.05015934533268        1.45714596474121
H            0.83442126979494        0.08267377552972        1.45061891959628
H            1.61420408547696       -4.11263932047625        0.28226693527245
H            0.90254433282102       -6.45928382132893        0.12372032431194
H           -1.46003794512722       -7.02886584709276       -0.24607415989437
H           -3.16854724328117       -5.23363761042429       -0.39155001308037
H           -4.98210884521781       -1.78837461908344       -0.20579308495076
H           -8.75894360600909       -2.64823650818066       -1.31657989980227
