75
 energy: -122.411289179001 gnorm: 0.000063564311 xtb: 6.7.1 (edcfbbe)
C           -9.64793345438595       -1.21513647708256       -0.10533415242830
C           -9.40107295470075        0.10664608559941       -0.44222633443434
C           -8.10066761363671        0.57691902152042       -0.40873096876429
C           -7.07603227796965       -0.29508429466422       -0.03327258864702
C           -5.66786214414372        0.12611184977576        0.02966544471006
C           -5.30775577970778        1.45602125630050        0.21866981559026
C           -3.96810879907117        1.83879083186230        0.26913915097315
C           -3.64391592617363        3.25968640325995        0.46871314928430
C           -2.40211157603867        3.80076666094408        0.12606787554444
C           -2.17207546199880        5.14602965656349        0.34987860307595
C           -3.18059246661710        5.91936579919429        0.90352784088616
C           -4.38519414262343        5.29661415028818        1.19405824581850
N           -4.61278051071684        4.01607925446708        0.98455837998056
C           -2.98161463396235        0.86789598458359        0.14416322030557
C           -3.32947854266341       -0.46864382459300       -0.03203892749170
C           -2.27952842812297       -1.48492320616122       -0.14204532297858
N           -1.00728768922510       -1.04926933210236       -0.05304129076015
C           -0.03084153781163       -1.92277038610709       -0.11158674146752
C            1.32897718821003       -1.36946736880221       -0.11055827217907
C            2.31743366498965       -1.85361888679872       -0.96527243677763
C            3.58172492664493       -1.29941374083183       -0.95524230718848
C            3.88161127766797       -0.25209651425962       -0.08857456810094
N            5.17864591270996        0.30174676633947       -0.07000462053970
C            6.27246627998240       -0.47073781785731        0.32585486195134
C            6.13471497049473       -1.78035110940752        0.76790107033916
C            7.24162078553903       -2.51846379275603        1.15913233452546
C            8.50165980521713       -1.95739487069883        1.12515268902982
C            8.65276066765582       -0.64098756404996        0.71405601484896
C            7.55255617513132        0.09961935967781        0.32497926551260
O            7.77735580768949        1.40395856774537       -0.03938339916434
C            6.69043210948518        2.15201981443116       -0.41929336357743
C            6.93069826462953        3.46089757205703       -0.79272423445682
C            5.88771259030679        4.27065609730073       -1.21829119317150
C            4.60949799157999        3.75508012961590       -1.28241775158993
C            4.36238541546395        2.44310514065331       -0.90708189448993
C            5.39089708524313        1.62856816925055       -0.45092352302299
C            2.89075100984929        0.24959651027035        0.75175487333227
C            1.62565822535865       -0.29909385455032        0.73161430142023
C           -0.29539875483184       -3.32101411357310       -0.18022949202700
C            0.66149125487314       -4.34619388169634       -0.07221416061071
C            0.28148635478541       -5.65459292980508       -0.20219436096753
C           -1.06185293269771       -5.99116590641581       -0.43472563303752
C           -2.02316942841885       -5.02207587678177       -0.49818199626403
C           -1.66639424952895       -3.66545714502975       -0.34851646193753
N           -2.63286982470369       -2.73170070010819       -0.34530912343686
C           -4.66877665235386       -0.83584688793475       -0.09017146559671
N           -7.32145861482083       -1.56800893612695        0.27319878250470
C           -8.56267401165445       -2.00744714959391        0.23899838608529
H          -10.64817600459834       -1.61937413293966       -0.11566073437188
H          -10.21170116476542        0.76111560258695       -0.73062489525430
H           -7.88162142547520        1.59598946519182       -0.68556045918966
H           -6.05168706309826        2.22485342396601        0.35499605174694
H           -1.63839179842550        3.18558339304936       -0.32236674169467
H           -1.21931990639771        5.58739123425679        0.09284253465954
H           -3.03978505467869        6.97125534688092        1.09711502050978
H           -5.21332853549876        5.85134899232295        1.61770784660612
H           -1.93378197906761        1.11471812395177        0.20283500382627
H            2.08435332504001       -2.63970964518605       -1.66832471156617
H            4.34501233922690       -1.66852657460836       -1.62448936085952
H            5.15298780602063       -2.22505733833426        0.81541177132891
H            7.10513914325836       -3.53518015848526        1.49438481136166
H            9.36641744517299       -2.52794196763146        1.42487001013328
H            9.62074732195437       -0.16643035900217        0.69343231612388
H            7.94414100087301        3.82645023208654       -0.74868620322952
H            6.08481982272448        5.29134386325428       -1.50567452883556
H            3.79071896988561        4.36645741038112       -1.62954269438002
H            3.36146986240964        2.04712312197851       -0.97827708874250
H            3.12401606017109        1.06669002928937        1.41843329475680
H            0.85150508563212        0.08158799693907        1.37984016270397
H            1.69048198643609       -4.09269600748876        0.13633860454093
H            1.01678330241481       -6.44144335678111       -0.11939607874844
H           -1.33196712784873       -7.03158388496815       -0.54219855202518
H           -3.06609176468191       -5.25766090513907       -0.63813234668376
H           -4.93481162450257       -1.87163553931231       -0.22291420561772
H           -8.69301537708514       -3.04988588017235        0.50214545227204
