  90
       -140.45675881
 C          9.6065614573       -4.4915542096       -1.6746921266
 C          8.9431920571       -5.0110478634       -0.5755608731
 C          7.7491168529       -4.4547732797       -0.1564087815
 C          7.1995107734       -3.3649671658       -0.8278240510
 C          5.9314756087       -2.7680380760       -0.3814259418
 C          4.8703778705       -3.5879366743        0.0223993980
 C          3.6618731965       -3.0723362402        0.4480312951
 C          3.5192017099       -1.6950274759        0.4774029376
 C          4.5736609761       -0.8514478192        0.0718338331
 C          5.7762620043       -1.3874890013       -0.3586509139
 C          4.1045103644        0.5005995688        0.2222012001
 C          4.7112761416        1.7309736430        0.0343589700
 C          4.0031535454        2.8903756420        0.3275385128
 C          4.6192500811        4.2110064361        0.1312455639
 C          5.9513891278        4.4313072449        0.4740033510
 C          6.5303112124        5.6727883568        0.2886228559
 C          5.7902359541        6.7140200250       -0.2459904342
 C          4.4653569169        6.5063408907       -0.5911666847
 C          3.8834443428        5.2667103922       -0.4022154597
 C          2.7044286074        2.7896209669        0.8386672928
 C          2.0864238482        1.5703489283        1.0363513817
 C          2.7756911372        0.4178914447        0.6926895262
 N          2.4157328310       -0.9179570622        0.8201786933
 C          1.1731784240       -1.4128315280        1.1593384082
 C         -0.0038502650       -0.7735110981        0.7684902785
 C         -1.2019649605       -1.3709839917        1.1634241196
 N         -2.4321674332       -0.8524452712        0.8192878731
 C         -3.5685599873       -1.6156004440        0.5513688572
 C         -3.7650624291       -2.9841614017        0.6374349328
 C         -5.0001181990       -3.4856509141        0.2753669880
 C         -6.0374149851       -2.6619625120       -0.1779558255
 C         -7.3376293041       -3.2426578147       -0.5463718622
 C         -7.9170353167       -4.2416418346        0.2324805000
 C         -9.1427441113       -4.7805605637       -0.1114225495
 C         -9.8079718989       -4.3346990532       -1.2411935185
 C         -9.2399601237       -3.3441562312       -2.0246734336
 C         -8.0166691790       -2.8006830334       -1.6796102270
 C         -5.8281824237       -1.2919484406       -0.2753351879
 C         -4.5982136158       -0.7703388891        0.0905570101
 C         -4.0793580566        0.5712671276        0.1203852643
 C         -4.6461061446        1.7990749135       -0.1766493396
 C         -3.8958165502        2.9550934558        0.0013324899
 C         -4.4622156711        4.2721966590       -0.3249411590
 C         -3.6890723407        5.2369435187       -0.9670168025
 C         -4.2229225957        6.4726406179       -1.2814268924
 C         -5.5359668478        6.7676078338       -0.9549432753
 C         -6.3128592520        5.8173112437       -0.3136587837
 C         -5.7823472496        4.5791507865       -0.0033025467
 C         -2.5988988129        2.8551687225        0.5161892355
 C         -2.0213947487        1.6382331257        0.8225530824
 C         -2.7491767018        0.4821147545        0.5861712817
 N         -1.2059276368       -2.5161281619        1.8552340512
 C         -0.0374260359       -3.0475373188        2.1372449876
 N          1.1483121301       -2.5634009647        1.8394775968
 C          7.8768695657       -2.8493207375       -1.9306589816
 C          9.0686171907       -3.4095961413       -2.3511047851
 H         10.5386650006       -4.9277593580       -2.0024791895
 H          9.3599776966       -5.8527893801       -0.0414870321
 H          7.2454450684       -4.8535403594        0.7122570846
 H          4.9962312582       -4.6595953712       -0.0196506932
 H          2.8572630551       -3.7182751004        0.7585067025
 H          6.5875562425       -0.7388381421       -0.6526457359
 H          5.7207149890        1.7860677095       -0.3436242901
 H          6.5291027203        3.6281627631        0.9080872722
 H          7.5632734985        5.8297598287        0.5636331616
 H          6.2439212061        7.6830685501       -0.3926425823
 H          3.8836409716        7.3142216681       -1.0111351217
 H          2.8540080090        5.1065869617       -0.6891117104
 H          2.1809402353        3.6924511216        1.1163700795
 H          1.1063360229        1.5310745089        1.4841196862
 H          0.0155312474        0.0835936625        0.1193548167
 H         -2.9809319220       -3.6343211289        0.9875964535
 H         -5.1667818880       -4.5513810148        0.3261228523
 H         -7.4112259686       -4.5809234895        1.1248143583
 H         -9.5831497838       -5.5501278804        0.5061070150
 H        -10.7650586830       -4.7571257569       -1.5098406395
 H         -9.7522714127       -2.9951568614       -2.9097796420
 H         -7.5706211109       -2.0397114542       -2.3037305858
 H         -6.6191730113       -0.6382667570       -0.6105060911
 H         -5.6561672260        1.8534349230       -0.5530968950
 H         -2.6692564294        5.0066061980       -1.2396738728
 H         -3.6129183287        7.2087535384       -1.7849500613
 H         -5.9519297973        7.7339221022       -1.1990113095
 H         -7.3366718517        6.0433477114       -0.0525053696
 H         -6.3879195026        3.8489622981        0.5138147553
 H         -2.0416361027        3.7603128942        0.7069765381
 H         -1.0399309623        1.6124348595        1.2664887686
 H         -0.0527409302       -3.9835203956        2.6811867167
 H          7.4538554630       -2.0159409994       -2.4730050555
 H          9.5801865424       -3.0012271346       -3.2108875757
