  75
       -117.26821391
 O          0.2051422819        2.7013391158       -2.8867092598
 P          0.1418723797        2.2569222135       -1.4850598448
 C          0.1536386269        3.6285276320       -0.2860557993
 C          0.3561493746        3.4134592146        1.0715446480
 C          0.3436027214        4.4848844913        1.9449898326
 C          0.1327137804        5.7694376054        1.4668784918
 C         -0.0621958872        5.9852828265        0.1125982505
 C         -0.0511773598        4.9141118814       -0.7635960344
 C          1.5326480531        1.1980146972       -0.9798169565
 C          2.7688382705        1.4489844638       -1.5798830150
 C          3.8962352795        0.7307128477       -1.2405764218
 C          3.7662737839       -0.2551967824       -0.2696332411
 C          2.5105721644       -0.5371543187        0.3222576045
 C          1.3916120390        0.2010548011       -0.0292544784
 C          2.7219149162       -1.6347800632        1.2235298395
 C          1.8883738229       -2.3388889256        2.0826583047
 C          2.4314340134       -3.3537928011        2.8444534395
 C          3.7889511267       -3.6586467956        2.7684564436
 C          4.6374824229       -2.9723105485        1.9210944326
 C          4.0930152113       -1.9672283711        1.1343244594
 N          4.7091490877       -1.1247613752        0.2295593154
 C          6.0716412915       -1.1416602462       -0.1083279199
 C          6.8179333942        0.0315961416       -0.0546229018
 C          8.1601452234        0.0106732870       -0.3860377239
 C          8.7683299631       -1.1756095601       -0.7617366002
 C          8.0269723041       -2.3443789508       -0.8128188247
 C          6.6816234582       -2.3314168516       -0.4934933125
 C         -1.3374175814        1.2715909021       -1.0825688628
 C         -1.5060284110        0.1018980243       -1.8303445318
 C         -2.5755594290       -0.7423741545       -1.6218551447
 C         -3.4866298230       -0.3967857645       -0.6300424607
 C         -3.3415771734        0.8023362388        0.1085928082
 C         -2.2581271840        1.6385970650       -0.1188544354
 C         -4.4630604195        0.8690601708        1.0021901197
 C         -4.8569119670        1.7810138153        1.9728471312
 C         -6.0064798445        1.5233433005        2.6919210968
 C         -6.7510129310        0.3678002451        2.4629411737
 C         -6.3790940392       -0.5533702884        1.5026997395
 C         -5.2368888783       -0.2889999260        0.7601671953
 N         -4.6338504373       -1.0426426281       -0.2278929782
 C         -5.1073661443       -2.2653023780       -0.7288275580
 C         -6.4259414051       -2.3805405883       -1.1580714111
 C         -6.8907820657       -3.5900985819       -1.6405781659
 C         -6.0465228860       -4.6859608187       -1.7087599858
 C         -4.7319745310       -4.5704302324       -1.2883909562
 C         -4.2609654656       -3.3678600349       -0.7945321720
 H          0.5236071732        2.4096874404        1.4342803121
 H          0.4982629160        4.3206546035        3.0016332208
 H          0.1221027088        6.6035947784        2.1533598903
 H         -0.2233512414        6.9867130557       -0.2589320171
 H         -0.1969848066        5.0534144947       -1.8250073227
 H          2.8164411020        2.2196135055       -2.3355593006
 H          4.8432604489        0.9204228612       -1.7225083353
 H          0.4290834385       -0.0079643352        0.4138583255
 H          0.8395529054       -2.0912329549        2.1510274842
 H          1.8010472784       -3.9166209470        3.5163473134
 H          4.1877735593       -4.4479870605        3.3880400923
 H          5.6907941392       -3.2051111055        1.8822041429
 H          6.3438447291        0.9496445594        0.2596526435
 H          8.7346770276        0.9238922081       -0.3422660518
 H          9.8174618779       -1.1889826721       -1.0149482457
 H          8.4958083677       -3.2703002161       -1.1110222490
 H          6.0940547641       -3.2355001916       -0.5540526678
 H         -0.7695995865       -0.1249523548       -2.5890470131
 H         -2.7043350469       -1.6350977052       -2.2147528767
 H         -2.1391569509        2.5526819727        0.4430743931
 H         -4.2700218727        2.6681392899        2.1581182782
 H         -6.3329505888        2.2196888725        3.4496542095
 H         -7.6376706197        0.1864032194        3.0520885974
 H         -6.9534682707       -1.4536814760        1.3452160837
 H         -7.0739211384       -1.5174858088       -1.1231107434
 H         -7.9152600909       -3.6747511613       -1.9703864711
 H         -6.4123372477       -5.6280750335       -2.0875773567
 H         -4.0709786501       -5.4230551955       -1.3360032382
 H         -3.2428629372       -3.2790486623       -0.4455040653
