61
 energy: -75.896629852510 gnorm: 0.000033833072 xtb: 6.7.1 (edcfbbe)
C           -2.38578947874595       -5.39269577880855       -0.01788711185493
C           -1.78652834403157       -4.01939883858930        0.00124511627472
C           -2.20355370807114       -3.05245190320080       -0.90157290882708
C           -1.65597507242734       -1.77982803085668       -0.90784359644892
C           -2.17237357014988       -0.78938023199521       -1.91291536697223
C           -0.63987710180277       -1.43486930916852        0.00068722670979
B           -0.00208606104470        0.00113197529853        0.00000139010436
C            1.56058757003040        0.16621352506568        0.00872620295302
C            2.19459408347835        1.03949417906356        0.90875016759208
C            1.40562747411390        1.84867763953861        1.89906890045898
C            3.57472899320241        1.17201480713038        0.90877777064661
C            4.37217920643428        0.46770563374584        0.02088155269771
C            5.86393605443388        0.60825838697539        0.03735444240252
C            3.74919268709866       -0.39033567279390       -0.87288853769411
C            2.37316141785401       -0.55336976152819       -0.88478341817927
C            1.78093094989858       -1.50873355430071       -1.88204925417548
C           -0.92511346936747        1.27271770462159       -0.00922156151208
C           -2.00050561981778        1.39764441397676        0.88840491794743
C           -2.31107682774057        0.31946716256652        1.88788745847933
C           -2.79827552050784        2.52984364482141        0.87728840161829
C           -2.57976694607655        3.56544883952904       -0.01999622232685
C           -3.46856464522209        4.77193134784638       -0.01991689818915
C           -1.52726100962389        3.44121610878703       -0.91164667740277
C           -0.70313742932035        2.32548937335687       -0.91224692933339
C            0.42160426714015        2.27651995678819       -1.90748463013219
C           -0.21438716517504       -2.41897991089311        0.90865164215424
C            0.86504025636418       -2.13750713851141        1.91540449859723
C           -0.79066111403637       -3.68027336425203        0.90287735026844
H           -2.19447358034419       -5.91447247035245        0.91684749416173
H           -3.46078565573471       -5.34231004587621       -0.18077656595713
H           -1.95243193703853       -5.97817958711009       -0.82974505217472
H           -2.97976689978531       -3.29871835698318       -1.61384217548178
H           -1.36043741192109       -0.26589783795541       -2.41122538792937
H           -2.79191210536060       -0.03984505685639       -1.42242235976736
H           -2.77559048670772       -1.29067997579885       -2.66715756544429
H            0.90270175419794        2.67467869307109        1.39783873844498
H            0.64147338009417        1.24928812368628        2.38692621058079
H            2.06171149553316        2.26197226418457        2.66252701931756
H            4.04057361610355        1.84607761378088        1.61525655691534
H            6.16104100233161        1.55007839554072        0.49299190951888
H            6.30875998303807       -0.20315547325969        0.61502397206517
H            6.26830035324715        0.56033468540421       -0.97175577206242
H            4.35434123253422       -0.94805101406443       -1.57515716092748
H            1.44697763024191       -2.41766983192491       -1.38344099965538
H            0.91956960303203       -1.07781170556806       -2.38584412832656
H            2.51968619113495       -1.78300896720222       -2.63246222957680
H           -1.41405555893992       -0.02366988673973        2.39707052152244
H           -2.75408981613598       -0.54218800066262        1.39043836103776
H           -3.01517511546070        0.68241911792390        2.63390978522060
H           -3.61546836541804        2.60975945973910        1.58175371519140
H           -4.47605710616099        4.49813957385102       -0.33363263905680
H           -3.53675241421675        5.19619313397283        0.98089357645776
H           -3.09187554423093        5.53392155187399       -0.69794259377127
H           -1.33970374570189        4.23575570108446       -1.62158257258472
H            1.37439702159191        2.45560774724363       -1.41092057798929
H            0.48411491022169        1.30608894639598       -2.39285836790866
H            0.28739431680398        3.03861627326994       -2.67253579054109
H            1.83863955187989       -2.10804488978280        1.42792491736693
H            0.88830577511910       -2.91435322855518        2.67701369750205
H            0.71583915335188       -1.17815082999420        2.40399211802242
H           -0.45190410414064       -4.41866832653338        1.61733741997262
