61
 energy: -75.800526915932 gnorm: 0.000055831636 xtb: 6.7.1 (edcfbbe)
C           -5.17790722324406        2.77785795219056       -0.03882315837917
C           -3.84003095471581        2.10625210432337        0.00544290974974
C           -2.80536805200578        2.53273280127327       -0.82502390464799
C           -1.55575772795064        1.94445558915408       -0.80143008380637
C           -0.51164556822294        2.45492550095537       -1.74912270676648
C           -1.31676826922847        0.83960348243928        0.04482075783540
B           -0.00006087487146       -0.01053244838267       -0.00181741178583
C            0.00191693918716       -1.54500061493043       -0.00556402960138
C            0.91736571488034       -2.30270928003254        0.79233733387246
C            1.89723216856660       -1.60246693251456        1.68284461299719
C            0.89988885851948       -3.67804691628470        0.77348832270225
C           -0.01291503725881       -4.39501454531835       -0.00420556466957
C           -0.01071848994074       -5.89017262220596        0.01175002409084
C           -0.91627877378841       -3.67340905832031       -0.78178955510034
C           -0.91763067299068       -2.29569527821255       -0.80519499935061
C           -1.88794260714813       -1.58797486712086       -1.69933492089362
C            1.32195167955556        0.83691265220614       -0.04226229937985
C            1.56342510059575        1.92875140695961        0.81762134111710
C            0.52390073700133        2.42555016621691        1.77766942656256
C            2.81272319144826        2.51982898965306        0.84104260560328
C            3.84178438588853        2.10637018170073       -0.00104742388353
C            5.18149616737345        2.77478168701195        0.04342611183998
C            3.58535372795940        1.06296766656064       -0.87957841488001
C            2.34633998513389        0.44971635460851       -0.94074587801133
C            2.12380560137426       -0.62869155994273       -1.95631376996441
C           -2.34698393201585        0.44180244883079        0.93453805915610
C           -2.12875060469775       -0.64751804867281        1.93892608416290
C           -3.58713242049317        1.05250188768846        0.87223634333620
H           -5.73029296310892        2.45475611583396       -0.92275948087604
H           -5.76784945636643        2.52955029042195        0.84038391270775
H           -5.06644553324367        3.85952965622771       -0.09461297564799
H           -2.98936233690465        3.35046276787552       -1.50916069362376
H           -0.97036542539684        3.03848164786314       -2.54509223742548
H            0.04145679810465        1.62888395575173       -2.19053659259557
H            0.20889861577272        3.09040195567466       -1.23533186056453
H            1.40958174606915       -0.80162951653750        2.23568399272166
H            2.34380616280372       -2.30133324591325        2.38715805235161
H            2.69655482313365       -1.14568880802494        1.09896275800798
H            1.60253833355394       -4.22814708755297        1.38582865228130
H           -0.73711315093454       -6.29001341857835       -0.69173728802231
H            0.97613170965166       -6.27400540961446       -0.24753889789588
H           -0.25424238331320       -6.25926018516745        1.00894470939789
H           -1.62603559651983       -4.21406053763805       -1.39441173020519
H           -1.39218971579682       -0.78972360171863       -2.24886382928288
H           -2.33699629646452       -2.28262835786974       -2.40624731264327
H           -2.68646786944555       -1.12552264093756       -1.11833778705182
H           -0.03105935311385        1.59375742537758        2.20573968409799
H           -0.19558690055192        3.07292270539260        1.27730065491157
H            0.98686440464242        2.99311818002908        2.58270913362656
H            2.99853387328346        3.32892702014414        1.53487201588936
H            5.72961467723086        2.61031338448905       -0.88153527178516
H            5.07556262054930        3.84586239563826        0.20555778407062
H            5.77432662397810        2.36990944624799        0.86551661502329
H            4.36428710088923        0.73943922804491       -1.55735837341148
H            2.92464648951915       -0.63639952698928       -2.69280874119816
H            2.09019829689010       -1.60746207227474       -1.47660939114390
H            1.17312566829042       -0.49081568969585       -2.46912702463216
H           -1.17679099006821       -0.51997524324081        2.45197220190106
H           -2.10051926940573       -1.62171589661656        1.44920396993381
H           -2.92915898681104       -0.65892828836983        2.67587435081760
H           -4.36945391616029        0.71895060489996        1.54123008414045
