  55
  -79.7403941998000       0.697118423729797      !
 C         -3.3830750224       -0.3586238302        2.2754966634
 C         -3.7965039859       -0.0964500370        0.8100561225
 C         -5.3118838910        0.0980962132        0.7682260089
 C         -3.3341988603       -1.2709487537       -0.0245767600
 C         -4.1667519133       -2.2844013081       -0.4690257722
 C         -3.6698501162       -3.3553461830       -1.1939651841
 C         -2.3196545046       -3.4163777101       -1.5035530878
 C         -1.4713821230       -2.4180717324       -1.0775391504
 C         -1.9646476574       -1.3517026824       -0.3212143023
 N         -1.1238566372       -0.3061116042        0.0534357320
 C          0.2225450432       -0.4995467854        0.2782683170
 C          0.6569685551       -1.6994025860        0.8349349786
 C          1.9921615838       -1.9486658451        0.9994571067
 C          2.9692449112       -1.0253250176        0.5147895816
 C          4.3119840845       -1.3212813460        0.6266967410
 C          5.3107181659       -0.4220790085        0.1437100009
 C          6.6651069780       -0.7331323399        0.2646917327
 N          7.7860089477       -0.9874787584        0.3672775919
 C          4.8973647667        0.7587732784       -0.4673753654
 C          3.5610900764        1.0692245044       -0.5792205199
 C          2.5301452016        0.2163368892       -0.0642806554
 C          1.1690960377        0.5382809867       -0.0743927950
 C          0.6367600210        1.8885744179       -0.5017605554
 C          0.7618343516        2.0168455285       -2.0393249284
 C          1.3798709349        3.0226663704        0.2478711000
 C         -0.8414502473        2.0592501571       -0.2167321839
 C         -1.4307005628        3.3134938577       -0.3011489392
 C         -2.7863892138        3.4760178513       -0.0942786300
 C         -3.5825382319        2.3885038891        0.2375689272
 C         -3.0367995330        1.1240481672        0.3305339579
 C         -1.6660321552        0.9666369465        0.0594106381
 H         -3.6640413796        0.4884845817        2.8975234826
 H         -2.3092187663       -0.5063373874        2.3620522277
 H         -3.8842619903       -1.2496142579        2.6475872177
 H         -5.6008293179        0.9328530421        1.4011522615
 H         -5.6525653593        0.2866846036       -0.2473972550
 H         -5.8153102476       -0.7842795850        1.1540770248
 H         -5.2219020822       -2.2525903673       -0.2526975385
 H         -4.3380630018       -4.1359310068       -1.5234266650
 H         -1.9307745279       -4.2363579151       -2.0874559300
 H         -0.4254602273       -2.4402909030       -1.3430407888
 H         -0.0771293881       -2.4239310276        1.1575615760
 H          2.3286728737       -2.8564202417        1.4740354527
 H          4.6229291706       -2.2468818789        1.0870861422
 H          5.6391190927        1.4356972566       -0.8680271381
 H          3.3088933146        1.9776262009       -1.0967638414
 H          0.1387194992        1.2612619256       -2.5162549736
 H          0.4181830678        2.9961559154       -2.3644905074
 H          1.7818916481        1.8700780824       -2.3775035189
 H          1.5419584720        3.8803910773       -0.3999169082
 H          0.7917566162        3.3438361461        1.1053708384
 H          2.3406268630        2.6896786145        0.6249150392
 H         -0.8280511468        4.1755575511       -0.5383456216
 H         -3.2286505675        4.4572210055       -0.1745403470
 H         -4.6304246776        2.5502636668        0.4272209942
  55
  -79.7396064305000       0.302881576270203      !
 C         -3.3777100677       -0.2973089979        2.2780080623
 C         -3.7999854603       -0.0820225023        0.8075988530
 C         -5.3156571855        0.1096483850        0.7697393729
 C         -3.3407267956       -1.2782464930        0.0032379307
 C         -4.1763256361       -2.2990384305       -0.4180718573
 C         -3.6844038093       -3.3808073974       -1.1300021313
 C         -2.3375343174       -3.4424821126       -1.4532384187
 C         -1.4864984321       -2.4377578396       -1.0479213860
 C         -1.9728053811       -1.3635805310       -0.2984424425
 N         -1.1281334506       -0.3148301487        0.0644989949
 C          0.2195543913       -0.5102818212        0.2744972194
 C          0.6612716942       -1.7159473892        0.8150198692
 C          1.9975468580       -1.9722183072        0.9551235271
 C          2.9714008137       -1.0429490402        0.4747877962
 C          4.3152084712       -1.3394655168        0.5686045116
 C          5.3084046256       -0.4232995723        0.1064984181
 C          6.6643431924       -0.7358310212        0.2047920752
 N          7.7873866669       -0.9893712304        0.2883124551
 C          4.8890112882        0.7793776785       -0.4568740023
 C          3.5515819883        1.0887119214       -0.5544213455
 C          2.5267246309        0.2105936441       -0.0716266966
 C          1.1646068353        0.5266820773       -0.0822895986
 C          0.6518375988        1.9037413475       -0.4390586919
 C          0.9910031125        2.2726095209       -1.9085968031
 C          1.2707577060        2.8968226172        0.5766336591
 C         -0.8458317199        2.0472137398       -0.2665330662
 C         -1.4467353895        3.2878332528       -0.4342838403
 C         -2.8077142397        3.4484181992       -0.2664775702
 C         -3.5987635616        2.3737528845        0.1168689642
 C         -3.0440649905        1.1211374664        0.2809163784
 C         -1.6676225902        0.9588982209        0.0359308888
 H         -3.6485077466        0.5723501788        2.8728496352
 H         -2.3045427904       -0.4502120750        2.3626556717
 H         -3.8824200905       -1.1713720215        2.6837643313
 H         -5.6003130381        0.9662185543        1.3750168343
 H         -5.6640818117        0.2618256400       -0.2493363927
 H         -5.8151946601       -0.7592655031        1.1899309060
 H         -5.2297917593       -2.2635103861       -0.1942326827
 H         -4.3542162802       -4.1675659786       -1.4410640031
 H         -1.9529980263       -4.2684584991       -2.0315279350
 H         -0.4439360826       -2.4620856476       -1.3256304807
 H         -0.0693308608       -2.4409955563        1.1443166758
 H          2.3375497742       -2.8864662419        1.4146337112
 H          4.6314428887       -2.2766084596        1.0012102972
 H          5.6277540605        1.4733527548       -0.8333312220
 H          3.2909209370        2.0135433187       -1.0364227809
 H          1.5131712438        3.2242719110       -1.9662197537
 H          1.6062965543        1.5070315572       -2.3726870402
 H          0.0769655675        2.3567091862       -2.4936205867
 H          0.8406470313        2.7172089345        1.5608869510
 H          2.3452137132        2.7679738481        0.6537653992
 H          1.0616361764        3.9247534118        0.2946384896
 H         -0.8481364834        4.1394151665       -0.7161764997
 H         -3.2575904282        4.4181710029       -0.4136471418
 H         -4.6501332005        2.5359869496        0.2854565940
