  62
  -94.7568620882000       0.177140160955205      !
 C         -7.8756973362       -3.0931876957       -0.0868429635
 C         -7.9803426981       -1.9724740999       -0.8980707045
 C         -6.9954064805       -1.0058232724       -0.8861882692
 C         -5.8871509538       -1.1490218738       -0.0481091406
 N         -4.8864213699       -0.1765928743       -0.0264172304
 C         -5.0911640515        1.1895038877        0.0931488747
 C         -6.2759643815        1.8962082197        0.2330728440
 C         -6.1954579855        3.2735598242        0.3702380667
 C         -4.9727249126        3.9308243272        0.3790378471
 C         -3.7835952080        3.2233943685        0.2713630165
 C         -3.8406613727        1.8480393800        0.1348961705
 C         -2.8289956834        0.8214691296        0.0361933091
 C         -1.4653484002        0.8629052911        0.0200831036
 C         -0.7039928732       -0.3541681369       -0.0773807280
 C          0.7013721472       -0.3558665772       -0.0284759531
 C          1.4569703606       -1.5771802764        0.1348088532
 C          2.8167830262       -1.6186869851        0.1649894240
 C          3.5335663293       -0.4182484309        0.0135890123
 C          2.8291472753        0.8191017702       -0.0922719048
 C          1.4654171157        0.8607566865       -0.1085961050
 C          3.8428678420        1.8465641850       -0.1540288513
 C          3.7897157909        3.2229297045       -0.2815023892
 C          4.9814031194        3.9314778737       -0.3438990346
 C          6.2036565209        3.2746215790       -0.2987388267
 C          6.2802706092        1.8962667538       -0.1707050660
 C          5.0917617172        1.1881234796       -0.0768357557
 N          4.8840676209       -0.1788338375        0.0252682295
 C          5.8849081237       -1.1503934772        0.0736138079
 C          5.8126167150       -2.2729772829       -0.7544262520
 C          6.8022195873       -3.2331212727       -0.7035275464
 C          7.8749895746       -3.0909755190        0.1651320356
 C          7.9481807316       -1.9778181527        0.9901304821
 C          6.9621262550       -1.0129860378        0.9520709443
 C         -1.4636477447       -1.5728099988       -0.2444202394
 C         -2.8237595939       -1.6137730642       -0.2438655946
 C         -3.5361302344       -0.4154396133       -0.0582915703
 C         -5.7835029796       -2.2791038896        0.7664541045
 C         -6.7723363362       -3.2410109987        0.7417523471
 H         -8.6478368607       -3.8467299727       -0.1010107760
 H         -8.8323111409       -1.8575331313       -1.5517609195
 H         -7.0594448256       -0.1497509375       -1.5408641833
 H         -7.2316867407        1.3957011651        0.2512570425
 H         -7.1056977152        3.8447309993        0.4765507102
 H         -4.9478859117        5.0050368968        0.4838940524
 H         -2.8327328971        3.7333195329        0.3001689206
 H         -0.9682801712        1.8133386918        0.1112403562
 H          0.9189966094       -2.4976622080        0.2889743409
 H          3.3374100322       -2.5510540620        0.3268246451
 H          0.9706901995        1.8117854404       -0.2062129688
 H          2.8400892778        3.7329489938       -0.3374846644
 H          4.9594886548        5.0065211831       -0.4404007185
 H          7.1166172905        3.8470451255       -0.3687369072
 H          7.2363296688        1.3960312785       -0.1606622206
 H          4.9901423935       -2.3667844758       -1.4476656429
 H          6.7427985474       -4.0952752840       -1.3510777689
 H          8.6477939000       -3.8432028798        0.1998005309
 H          8.7760231968       -1.8673595688        1.6747895003
 H          7.0008943483       -0.1627728191        1.6163053921
 H         -0.9294257457       -2.4908193205       -0.4243687900
 H         -3.3486123958       -2.5436581432       -0.4063594568
 H         -4.9370190439       -2.3771610966        1.4294498023
 H         -6.6885798932       -4.1086168845        1.3792396096
  62
  -94.7567484630000       0.157071904117007      !
 C         -7.8748309833       -3.0927755370        0.1539810012
 C         -6.7532585311       -3.2545904273       -0.6471099033
 C         -5.7624968666       -2.2944739888       -0.6649053422
 C         -5.8830663051       -1.1516305892        0.1294064684
 N         -4.8836326207       -0.1778373815        0.1120024857
 C         -5.0888506415        1.1855761623       -0.0352057471
 C         -6.2724308982        1.8869560326       -0.2078863384
 C         -6.1923323432        3.2617796245       -0.3692749392
 C         -4.9709052446        3.9213410760       -0.3699664765
 C         -3.7823189674        3.2185350740       -0.2296606552
 C         -3.8389419738        1.8457966358       -0.0687276376
 C         -2.8269271742        0.8229731057        0.0610970179
 C         -1.4635546387        0.8654486959        0.0890104569
 C         -0.7026082217       -0.3503369434        0.2068059974
 C          0.7021326718       -0.3550706902        0.1412101572
 C          1.4522200023       -1.5803711650       -0.0151656188
 C          2.8098285787       -1.6228057448       -0.0991582708
 C          3.5308911761       -0.4190695295       -0.0085361077
 C          2.8313862965        0.8196203937        0.1119032444
 C          1.4692196564        0.8617410077        0.1821174504
 C          3.8463156619        1.8478480124        0.1135324753
 C          3.7994560131        3.2258332309        0.2257031015
 C          4.9927422261        3.9343685295        0.2204508312
 C          6.2116190045        3.2766044609        0.1230197039
 C          6.2819995371        1.8968247001        0.0084736020
 C          5.0902343730        1.1884310777       -0.0168898053
 N          4.8788204549       -0.1794137796       -0.0900110777
 C          5.8774221339       -1.1490238992       -0.1973785402
 C          6.8891770482       -1.0156352099       -1.1509901108
 C          7.8727517510       -1.9784127352       -1.2522843956
 C          7.8619047390       -3.0847436674       -0.4150273468
 C          6.8546244843       -3.2221767400        0.5294488253
 C          5.8676026828       -2.2643861619        0.6429004851
 C         -1.4628621668       -1.5653301378        0.3977327270
 C         -2.8228148846       -1.6070476443        0.3865676468
 C         -3.5336463914       -0.4133718250        0.1681332957
 C         -7.0087559355       -0.9951770104        0.9416073615
 C         -7.9953636680       -1.9602198979        0.9464641555
 H         -8.6486897388       -3.8446885033        0.1618037943
 H         -6.6562898825       -4.1325379555       -1.2685810329
 H         -4.9018856598       -2.4037712090       -1.3075825143
 H         -7.2267587965        1.3841300932       -0.2332051354
 H         -7.1018416903        3.8287217770       -0.5014705036
 H         -4.9463728356        4.9934579584       -0.4945480010
 H         -2.8321321515        3.7299789426       -0.2525354572
 H         -0.9658894564        1.8145895090       -0.0113015819
 H          0.9102992339       -2.5051872408       -0.1216994891
 H          3.3240592199       -2.5593747919       -0.2566559003
 H          0.9786187422        1.8138981644        0.2890008991
 H          2.8537635666        3.7371134348        0.3219053140
 H          4.9757376215        5.0105271819        0.3050522887
 H          7.1267496562        3.8495943437        0.1408712028
 H          7.2360420715        1.3953643603       -0.0446465806
 H          6.8777819565       -0.1696212704       -1.8217482094
 H          8.6492985991       -1.8713903647       -1.9951692483
 H          8.6322368815       -3.8356304224       -0.4993119825
 H          6.8444868411       -4.0792820475        1.1864147055
 H          5.0963325586       -2.3549455915        1.3930639748
 H         -0.9298582381       -2.4785554795        0.6038466965
 H         -3.3492037976       -2.5331310966        0.5650330966
 H         -7.0848266949       -0.1293006011        1.5819551454
 H         -8.8610662558       -1.8345121026        1.5797568116
  62
  -94.7566750647000       0.145333919232371      !
 C         -7.8417759339       -3.1075044321       -0.2813610989
 C         -7.8604642565       -2.0146409294       -1.1357662093
 C         -6.8839170330       -1.0431942267       -1.0496128098
 C         -5.8716763997       -1.1541628930       -0.0938799469
 N         -4.8762908256       -0.1793576177       -0.0049498278
 C         -5.0888520277        1.1894318043        0.0396995277
 C         -6.2811389033        1.8974660299        0.0491287434
 C         -6.2117115707        3.2794065117        0.1316395707
 C         -4.9932164158        3.9400101175        0.2141343195
 C         -3.7995097268        3.2326260630        0.2355835625
 C         -3.8452103890        1.8525165967        0.1542816621
 C         -2.8291504397        0.8253280080        0.1718402801
 C         -1.4665554374        0.8702298457        0.2332266704
 C         -0.6974821183       -0.3463435531        0.2073450503
 C          0.7074781333       -0.3398421505        0.2569652501
 C          1.4720483786       -1.5556553719        0.4286422628
 C          2.8305476443       -1.5996286985        0.3749841558
 C          3.5361641485       -0.4062170065        0.1376944654
 C          2.8292510476        0.8325412506        0.0690784248
 C          1.4673496173        0.8770167205        0.1352313602
 C          3.8397019136        1.8548975441       -0.0772795226
 C          3.7815588019        3.2300104541       -0.2144463063
 C          4.9667118873        3.9325839382       -0.3814291978
 C          6.1857364451        3.2703953733       -0.4310820159
 C          6.2673051390        1.8929667606       -0.2952680871
 C          5.0882502827        1.1912698154       -0.0951238233
 N          4.8840689346       -0.1736907801        0.0388197443
 C          5.8756345903       -1.1542410842       -0.0063658383
 C          5.7065716900       -2.2808575466       -0.8151886448
 C          6.6852607245       -3.2520969164       -0.8600502938
 C          7.8435603744       -3.1173554904       -0.1076201259
 C          8.0131327450       -2.0007471219        0.6981517799
 C          7.0388576890       -1.0248153340        0.7560691524
 C         -1.4478194282       -1.5747780621        0.0772344321
 C         -2.8057642619       -1.6202268250        0.0040454380
 C         -3.5277849107       -0.4158268402        0.0779586899
 C         -5.8552213523       -2.2549347697        0.7651810980
 C         -6.8349247555       -3.2218029727        0.6664777115
 H         -8.6059520620       -3.8658132045       -0.3546786691
 H         -8.6370154993       -1.9255901005       -1.8811011757
 H         -6.8782255699       -0.2086520650       -1.7345309206
 H         -7.2348412310        1.3941967080        0.0076715591
 H         -7.1272250315        3.8521362752        0.1356816232
 H         -4.9767751237        5.0178421677        0.2735884350
 H         -2.8542040818        3.7468258788        0.3193085163
 H         -0.9769709270        1.8251714058        0.3148980724
 H          0.9446654612       -2.4686474543        0.6501500878
 H          3.3609499115       -2.5267487440        0.5358131584
 H          0.9697497629        1.8288361670        0.0659888556
 H          2.8325008707        3.7437185772       -0.1981196961
 H          4.9409084777        5.0066904191       -0.4870646114
 H          7.0919200737        3.8375035101       -0.5834621250
 H          7.2189609293        1.3888554186       -0.3604407655
 H          4.8161945397       -2.3686274553       -1.4196176947
 H          6.5497960321       -4.1170240606       -1.4923923419
 H          8.6078447144       -3.8778821100       -0.1482105284
 H          8.9085401211       -1.8960870605        1.2928185005
 H          7.1552430099       -0.1723020003        1.4080655357
 H         -0.9066054767       -2.5014255804       -0.0162687487
 H         -3.3198757456       -2.5602004002       -0.1321194947
 H         -5.0846666528       -2.3271969690        1.5180087945
 H         -6.8189463258       -4.0680245250        1.3372745034
  62
  -94.7565250854000       0.124005592388271      !
 C         -7.7580692495       -0.0367458766       -2.9439552655
 C         -6.6563359008        0.8044499036       -3.0111165784
 C         -5.7073138536        0.7927738753       -2.0098933089
 C         -5.8498616803       -0.0710543899       -0.9212711944
 N         -4.8831668290       -0.0893120252        0.0851831495
 C         -5.1280696639       -0.0183621258        1.4478432502
 C         -6.3340180167        0.0868377759        2.1237990556
 C         -6.2943890174        0.1789560314        3.5069020045
 C         -5.0911066835        0.1772859675        4.1989770138
 C         -3.8809877333        0.1010028741        3.5235014770
 C         -3.8970558710        0.0085862069        2.1432504550
 C         -2.8553924042       -0.0519508999        1.1441882265
 C         -1.4929006755       -0.0667742402        1.2223427740
 C         -0.7008641595       -0.1211132395        0.0237500088
 C          0.7048211965       -0.0744751560        0.0510028519
 C          1.4524958070       -0.2412535518        1.2759169715
 C          2.8125459153       -0.2377059972        1.3275250147
 C          3.5344002054       -0.0536877550        0.1351997114
 C          2.8362852272        0.1849819711       -1.0878676001
 C          1.4729199822        0.1675584040       -1.1401770680
 C          3.8547670151        0.4225611149       -2.0841400507
 C          3.8079098880        0.6899961620       -3.4406600899
 C          5.0032262504        0.8308264112       -4.1319649545
 C          6.2221657028        0.6877619640       -3.4833516452
 C          6.2922820807        0.4221066418       -2.1239746983
 C          5.1003782224        0.3124744903       -1.4241734827
 N          4.8859691015        0.0268495130       -0.0845786166
 C          5.8776069623       -0.1876298544        0.8738262499
 C          5.7983381106       -1.2916468542        1.7262757951
 C          6.7697751022       -1.4951797028        2.6846642943
 C          7.8319235528       -0.6106329977        2.8068047180
 C          7.9147839396        0.4847390672        1.9590633277
 C          6.9468510039        0.7019274011        0.9995492198
 C         -1.4244382162       -0.2435499710       -1.2215897654
 C         -2.7827012581       -0.2478659684       -1.2998671002
 C         -3.5266968270       -0.1072602614       -0.1152829470
 C         -6.9577417517       -0.9191002404       -0.8575254837
 C         -7.9024518583       -0.8950327345       -1.8633920785
 H         -8.4980925092       -0.0242580013       -3.7291111718
 H         -6.5420270695        1.4788622376       -3.8468113429
 H         -4.8620918240        1.4637148479       -2.0446874580
 H         -7.2748797863        0.1124819583        1.5961908483
 H         -7.2215556909        0.2582381485        4.0547699352
 H         -5.0980568187        0.2482480511        5.2762279454
 H         -2.9455529481        0.1199057400        4.0616173541
 H         -1.0197230209       -0.0026950830        2.1873249052
 H          0.9120904568       -0.4034350133        2.1932948529
 H          3.3288219676       -0.3607330503        2.2680101929
 H          0.9767395901        0.3901052977       -2.0697034052
 H          2.8604889956        0.7815914965       -3.9496175756
 H          4.9864535632        1.0428829349       -5.1904413941
 H          7.1378834717        0.7819744152       -4.0479672514
 H          7.2459238584        0.2915530425       -1.6362158522
 H          4.9847471021       -1.9918392401        1.6101180001
 H          6.7037794539       -2.3531429822        3.3372495634
 H          8.5894414963       -0.7734215797        3.5577340046
 H          8.7359678937        1.1795449579        2.0549093295
 H          6.9930187434        1.5711214592        0.3608101867
 H         -0.8624645620       -0.3931560481       -2.1284247334
 H         -3.2822089335       -0.3808137484       -2.2481812884
 H         -7.0517271974       -1.6094668544       -0.0328027606
 H         -8.7534741189       -1.5578849452       -1.8116535496
  62
  -94.7564357352000       0.112818095101876      !
 C         -7.9070808267       -3.0146935142        0.5098659715
 C         -6.8366406615       -3.2733306983       -0.3346436912
 C         -5.8344489138       -2.3392112612       -0.4994963427
 C         -5.8912718240       -1.1252189717        0.1890231515
 N         -4.8770681957       -0.1788536189        0.0349647181
 C         -5.0703504308        1.1716885726       -0.2122309028
 C         -6.2503434970        1.8695843291       -0.4194519618
 C         -6.1597464021        3.2260069176       -0.6944570458
 C         -4.9320339975        3.8691592900       -0.7703413222
 C         -3.7476766131        3.1676439531       -0.5919893452
 C         -3.8148085792        1.8126613908       -0.3193487487
 C         -2.8121023825        0.7924616329       -0.1220399691
 C         -1.4477393137        0.8239952755       -0.0966316772
 C         -0.7023563288       -0.3864940769        0.1053095399
 C          0.7058852426       -0.3895205768        0.0946276562
 C          1.4627896755       -1.6047746067       -0.0906004942
 C          2.8225615472       -1.6314313688       -0.1540999241
 C          3.5293971796       -0.4244466646       -0.0112500414
 C          2.8221165014        0.7897901021        0.2494674518
 C          1.4581532829        0.8191627478        0.2815990093
 C          3.8334124206        1.8016614503        0.4465325425
 C          3.7768868536        3.1571817163        0.7183650111
 C          4.9666157637        3.8653461518        0.8181393039
 C          6.1886801135        3.2352601759        0.6290502749
 C          6.2685397757        1.8775610635        0.3562735172
 C          5.0837980012        1.1607252520        0.2890153182
 N          4.8792018392       -0.1825214280        0.0120473702
 C          5.8788954838       -1.1140922769       -0.2717510702
 C          5.7624678003       -1.9454197490       -1.3887833471
 C          6.7518392498       -2.8642760561       -1.6715298118
 C          7.8677867302       -2.9693082621       -0.8531795958
 C          7.9840659767       -2.1473600429        0.2588896162
 C          6.9993205004       -1.2269007925        0.5546599502
 C         -1.4661115209       -1.5898998312        0.3324475557
 C         -2.8273480965       -1.6170693361        0.3433373364
 C         -3.5287356458       -0.4271602573        0.0812255668
 C         -6.9679165397       -0.8690004515        1.0419237828
 C         -7.9662636664       -1.8091122814        1.1945182263
 H         -8.6885671000       -3.7480435108        0.6351005124
 H         -6.7888813488       -4.2077616666       -0.8738896193
 H         -5.0146126864       -2.5259807848       -1.1766770719
 H         -7.2094708583        1.3763607745       -0.3860229486
 H         -7.0658695011        3.7904524923       -0.8568838506
 H         -4.8991951314        4.9269157103       -0.9839593741
 H         -2.7931985183        3.6647564074       -0.6736916562
 H         -0.9330295246        1.7525748100       -0.2783891154
 H          0.9255755415       -2.5290303023       -0.2256415195
 H          3.3511300092       -2.5620897045       -0.2986134338
 H          0.9501370878        1.7403154841        0.5141123183
 H          2.8264802759        3.6521897596        0.8473082754
 H          4.9422104774        4.9228216558        1.0345161177
 H          7.0991361911        3.8124185712        0.6922766991
 H          7.2236529482        1.4042703485        0.1891862771
 H          4.9057073245       -1.8418455441       -2.0376568804
 H          6.6585305371       -3.4982481635       -2.5408602409
 H          8.6405100055       -3.6875091953       -1.0797896904
 H          8.8457140175       -2.2325104831        0.9044058134
 H          7.0732670036       -0.6087342292        1.4366983219
 H         -0.9343587956       -2.4972393616        0.5677857658
 H         -3.3596505963       -2.5292478679        0.5688883089
 H         -6.9954894806        0.0558270178        1.5983310465
 H         -8.7922001777       -1.6065910256        1.8601896239
  62
  -94.7562867879000       9.636677449099515E-002 !
 C         -7.7609506143       -0.5306092194       -2.9127260373
 C         -6.7483580261        0.4063843273       -3.0618979661
 C         -5.7957762044        0.5690385301       -2.0766763713
 C         -5.8454501786       -0.2142410710       -0.9215962794
 N         -4.8780220626       -0.0640918162        0.0735712984
 C         -5.1321381442        0.0655720561        1.4299704749
 C         -6.3459426197        0.1352055976        2.0965916024
 C         -6.3190499257        0.3051449485        3.4725373504
 C         -5.1210367388        0.4130425581        4.1656772951
 C         -3.9049996700        0.3729336314        3.4976589311
 C         -3.9084291304        0.2054240330        2.1242710596
 C         -2.8610112676        0.1487521892        1.1311860485
 C         -1.4993002976        0.1964014658        1.2147835292
 C         -0.6989626683        0.1074129554        0.0247050393
 C          0.7072613443        0.1454604902        0.0619215155
 C          1.4426639011       -0.0430472685        1.2910821415
 C          2.8009611759       -0.1092043911        1.3436020104
 C          3.5316234448        0.0354588154        0.1507138539
 C          2.8493196305        0.3270803268       -1.0702482047
 C          1.4866262137        0.3718314354       -1.1248138297
 C          3.8813075853        0.5233448455       -2.0616283157
 C          3.8520835049        0.8125242229       -3.4142046477
 C          5.0544145400        0.8930726485       -4.1030406809
 C          6.2619316607        0.6680169044       -3.4567130252
 C          6.3144643802        0.3778748448       -2.1015432163
 C          5.1176846903        0.3298505108       -1.4033682288
 N          4.8855704145        0.0383175524       -0.0675913885
 C          5.8623794796       -0.2839810362        0.8754225023
 C          5.7014797515       -1.4068543354        1.6913635934
 C          6.6678806493       -1.7284946758        2.6218127993
 C          7.8049705565       -0.9438093793        2.7535680228
 C          7.9656472149        0.1737600711        1.9468785021
 C          7.0040010316        0.5085651077        1.0153251904
 C         -1.4097186730       -0.0686204630       -1.2204455099
 C         -2.7661365490       -0.1431479605       -1.3027287936
 C         -3.5221614382       -0.0073518466       -0.1253067916
 C         -6.8639637381       -1.1588914328       -0.7750192969
 C         -7.8129040192       -1.3094519380       -1.7655336377
 H         -8.5037150909       -0.6540131751       -3.6856248139
 H         -6.7067740791        1.0186779525       -3.9505245268
 H         -5.0219362950        1.3151187774       -2.1775932183
 H         -7.2836683587        0.0745963989        1.5660279807
 H         -7.2521392835        0.3585350803        4.0134886509
 H         -5.1376661951        0.5415802254        5.2375540166
 H         -2.9753110825        0.4776259972        4.0358555457
 H         -1.0332486241        0.3349546715        2.1756186027
 H          0.8916876640       -0.1753588927        2.2071169070
 H          3.3112739969       -0.2579055923        2.2837338306
 H          0.9995968955        0.6306355173       -2.0501451146
 H          2.9124597224        0.9674458348       -3.9222262847
 H          5.0512943888        1.1216947266       -5.1581933326
 H          7.1823938265        0.7149090039       -4.0195464358
 H          7.2580557709        0.1818039319       -1.6163960151
 H          4.8283898578       -2.0298099598        1.5669427525
 H          6.5394075340       -2.6016887501        3.2443198766
 H          8.5598549423       -1.2010116553        3.4803646329
 H          8.8440748295        0.7930327817        2.0526007692
 H          7.1124848571        1.3957859645        0.4099061843
 H         -0.8360811946       -0.2125775881       -2.1210114771
 H         -3.2529908900       -0.3257812238       -2.2492827511
 H         -6.8840002406       -1.7854300908        0.1040671402
 H         -8.5940721627       -2.0459043152       -1.6481479655
  62
  -94.7561718237000       8.532836708204804E-002 !
 C         -7.8055082376        1.5332649308       -2.4683297907
 C         -6.6773752613        2.2730116586       -2.1430907867
 C         -5.7139342331        1.7461653810       -1.3075862689
 C         -5.8691242400        0.4598374750       -0.7854015374
 N         -4.8924893653       -0.0743866188        0.0563601224
 C         -5.1248086514       -0.6921753715        1.2755085348
 C         -6.3214634297       -0.9083702767        1.9417398407
 C         -6.2691963432       -1.5266838818        3.1813493855
 C         -5.0619118420       -1.9107633282        3.7490428656
 C         -3.8600836429       -1.6665578564        3.0994925703
 C         -3.8886401710       -1.0490450025        1.8621622909
 C         -2.8562095426       -0.6135250144        0.9495744549
 C         -1.4941846612       -0.6822065721        0.9887540765
 C         -0.7058217450       -0.1417919030       -0.0895606571
 C          0.6984935278       -0.1041363482       -0.0408706151
 C          1.4295537346       -0.4959336746        1.1443737947
 C          2.7871021902       -0.4771136582        1.2320645601
 C          3.5321970710       -0.0676642496        0.1124493063
 C          2.8549758826        0.3741260580       -1.0638484103
 C          1.4931892376        0.3623971256       -1.1475961092
 C          3.8897958149        0.7950624833       -1.9804052647
 C          3.8681706738        1.2893299902       -3.2721117386
 C          5.0749354735        1.5724954179       -3.8961452146
 C          6.2821157501        1.3480214366       -3.2480196554
 C          6.3273655673        0.8533685736       -1.9538886197
 C          5.1225955099        0.5980052062       -1.3166565685
 N          4.8858146030        0.0781880411       -0.0536923051
 C          5.8662098068       -0.2679117215        0.8777703613
 C          5.8165782452       -1.5051895361        1.5232869164
 C          6.7856690951       -1.8409469147        2.4466695664
 C          7.8143477621       -0.9567986591        2.7385947017
 C          7.8648463528        0.2737159811        2.0998484293
 C          6.8993496354        0.6226523342        1.1774945722
 C         -1.4467237497        0.3582213351       -1.2272869571
 C         -2.8046578127        0.4267468587       -1.2678879121
 C         -3.5385034016       -0.0170941101       -0.1534187840
 C         -7.0024702585       -0.2848997653       -1.1189971137
 C         -7.9613720625        0.2549155200       -1.9521368566
 H         -8.5576176560        1.9502135136       -3.1200835957
 H         -6.5531594225        3.2704334459       -2.5386312064
 H         -4.8473641240        2.3278980750       -1.0310807652
 H         -7.2643315702       -0.5934451233        1.5220628577
 H         -7.1891033984       -1.7082013438        3.7169908358
 H         -5.0590177449       -2.3939142924        4.7144590477
 H         -2.9209354981       -1.9464124227        3.5518937659
 H         -1.0192954595       -1.1657039752        1.8251181901
 H          0.8757686956       -0.7874159570        2.0204191275
 H          3.2841211835       -0.7501456502        2.1513051703
 H          1.0249486567        0.7088838308       -2.0525384960
 H          2.9312696588        1.4452399430       -3.7849268185
 H          5.0773716161        1.9612647240       -4.9032878985
 H          7.2078321885        1.5589578429       -3.7623306299
 H          7.2722047791        0.6619219334       -1.4690120265
 H          5.0292071568       -2.2007148588        1.2743530247
 H          6.7447890247       -2.8020522531        2.9374710675
 H          8.5706919474       -1.2243759490        3.4601398647
 H          8.6577586658        0.9695372600        2.3309445210
 H          6.9186799070        1.5923550810        0.7032002424
 H         -0.9033573681        0.6975541869       -2.0924778250
 H         -3.3126243515        0.7983569055       -2.1455882938
 H         -7.1068517523       -1.2914545980       -0.7428099025
 H         -8.8337932495       -0.3276251591       -2.2086851279
  62
  -94.7557582446000       5.508402163876683E-002 !
 C         -7.9291926982       -3.0048155079        0.2429129216
 C         -7.8456419849       -2.1643090529       -0.8578127138
 C         -6.8302906212       -1.2342664273       -0.9514406338
 C         -5.8820299909       -1.1309190031        0.0686320116
 N         -4.8519675943       -0.1927052619       -0.0197745866
 C         -5.0115298174        1.1488036923       -0.3301013625
 C         -6.1724616695        1.8655155125       -0.5780156710
 C         -6.0518250698        3.2219553386       -0.8384179075
 C         -4.8147617913        3.8522377361       -0.8413396957
 C         -3.6540583421        3.1437691758       -0.5642194090
 C         -3.7514646435        1.7889675577       -0.3021789100
 C         -2.7807011365        0.7747792474        0.0373541733
 C         -1.4226219040        0.7995189624        0.1654357318
 C         -0.6979299793       -0.4121959592        0.4390795067
 C          0.7072072474       -0.4196529078        0.4866853139
 C          1.4757522450       -1.6411667564        0.4112662516
 C          2.8285109828       -1.6603515422        0.2671310503
 C          3.5218868643       -0.4363696998        0.2195836119
 C          2.8180586336        0.7852844390        0.4465581555
 C          1.4603635828        0.8046967637        0.5752321700
 C          3.8232028070        1.8228394980        0.4597713602
 C          3.7625627539        3.1958974052        0.6164154067
 C          4.9360345511        3.9295205366        0.5132895420
 C          6.1438682788        3.3040014176        0.2362292153
 C          6.2276896660        1.9290320937        0.0782107875
 C          5.0634472096        1.1887829986        0.2165255769
 N          4.8615343531       -0.1771942808        0.0805940257
 C          5.8382473854       -1.1093457120       -0.2703100527
 C          5.5850098671       -2.0344691717       -1.2868312348
 C          6.5545707535       -2.9466546914       -1.6481942519
 C          7.7871902643       -2.9517221582       -1.0102615754
 C          8.0385177515       -2.0399662442        0.0049699009
 C          7.0742198397       -1.1266871912        0.3805202682
 C         -1.4857993881       -1.6137045360        0.5865392490
 C         -2.8426799804       -1.6362994116        0.4775358795
 C         -3.5205913306       -0.4347955024        0.2068445860
 C         -5.9675078590       -1.9788361667        1.1748894432
 C         -6.9851854583       -2.9075709748        1.2550778111
 H         -8.7241321071       -3.7313367063        0.3108173189
 H         -8.5729122690       -2.2418724263       -1.6525204713
 H         -6.7453711073       -0.6005456992       -1.8214718199
 H         -7.1417799643        1.3918532264       -0.5569975893
 H         -6.9418787632        3.7992513761       -1.0400302542
 H         -4.7579036954        4.9094362974       -1.0527269521
 H         -2.6948209998        3.6383461825       -0.5491431279
 H         -0.8921617342        1.7197289048       -0.0113341953
 H          0.9545505458       -2.5835065859        0.4331374546
 H          3.3646706765       -2.5957191705        0.2028577803
 H          0.9586216999        1.7345756715        0.7840696883
 H          2.8199489412        3.6850938472        0.8090961365
 H          4.9089445261        5.0017413563        0.6363141506
 H          7.0395361097        3.8990833103        0.1374768935
 H          7.1690580381        1.4600059175       -0.1620069286
 H          4.6361720906       -2.0073772982       -1.8014038859
 H          6.3540871393       -3.6517693893       -2.4412779461
 H          8.5458443814       -3.6610598757       -1.3023654948
 H          8.9920162048       -2.0474365208        0.5121939642
 H          7.2571568415       -0.4405274384        1.1935672308
 H         -0.9804393599       -2.5378639069        0.8127409210
 H         -3.3880843536       -2.5625434252        0.5817500507
 H         -5.2465546155       -1.8823184358        1.9727989143
 H         -7.0483099154       -3.5566982611        2.1158372104
  62
  -94.7556052635000       4.685116499345963E-002 !
 C         -7.8767087315       -3.0533996163        0.2566012759
 C         -7.7767866906       -2.2424877732       -0.8649200425
 C         -6.7811906080       -1.2908807228       -0.9527099471
 C         -5.8690725628       -1.1364498146        0.0933975759
 N         -4.8510452730       -0.1848660000        0.0051680076
 C         -5.0160460229        1.1422747718       -0.3576085377
 C         -6.1786770594        1.8362413588       -0.6563501438
 C         -6.0655758132        3.1822414893       -0.9695126466
 C         -4.8345156633        3.8238745194       -0.9733813515
 C         -3.6726818275        3.1390979393       -0.6450411360
 C         -3.7619993431        1.7947124184       -0.3308923207
 C         -2.7875969743        0.8014323918        0.0578138388
 C         -1.4299000858        0.8366228560        0.1942115276
 C         -0.7027796569       -0.3661389955        0.4952179824
 C          0.7036744090       -0.3788830894        0.5145097812
 C          1.4568195344       -1.6069663360        0.4079215689
 C          2.8071607322       -1.6375961260        0.2458542023
 C          3.5118655522       -0.4200819202        0.2165632598
 C          2.8242719928        0.8067270336        0.4666754231
 C          1.4667541957        0.8383463922        0.6020846385
 C          3.8444448933        1.8296873104        0.4961359950
 C          3.8067442050        3.1997838804        0.6840977692
 C          4.9927899609        3.9158419378        0.6008313979
 C          6.1912500655        3.2776325314        0.3123207888
 C          6.2525057589        1.9055958111        0.1217405381
 C          5.0755676783        1.1824752106        0.2398994200
 N          4.8538253412       -0.1768730992        0.0764103966
 C          5.8133390175       -1.1154637868       -0.3050964812
 C          5.5422851292       -2.0004139367       -1.3522437797
 C          6.4943189008       -2.9179384074       -1.7452402488
 C          7.7259505596       -2.9691051946       -1.1074937107
 C          7.9942232889       -2.0979681754       -0.0613135124
 C          7.0480491755       -1.1787317180        0.3447676881
 C         -1.4857459457       -1.5634454380        0.6924725869
 C         -2.8420979586       -1.5949560204        0.5821417893
 C         -3.5214902627       -0.4076585666        0.2594309974
 C         -5.9729803000       -1.9521777364        1.2221125708
 C         -6.9707388133       -2.9027767762        1.2965716186
 H         -8.6547559818       -3.7984245060        0.3190338645
 H         -8.4744521950       -2.3614062851       -1.6806817736
 H         -6.6818562823       -0.6804271963       -1.8377344190
 H         -7.1433140886        1.3529280092       -0.6360473947
 H         -6.9566538218        3.7417864656       -1.2124388677
 H         -4.7832053186        4.8721500514       -1.2265336509
 H         -2.7186918870        3.6437854117       -0.6326665375
 H         -0.8993824711        1.7524812547       -0.0056546499
 H          0.9236511712       -2.5428082506        0.4108754040
 H          3.3330046148       -2.5763496068        0.1527662469
 H          0.9718413444        1.7701748947        0.8202423019
 H          2.8723368994        3.7005074615        0.8869254066
 H          4.9832052067        4.9851250705        0.7494221055
 H          7.0970207155        3.8598466767        0.2306088618
 H          7.1863325125        1.4254377354       -0.1260240587
 H          4.5936414001       -1.9380697151       -1.8641517506
 H          6.2805205487       -3.5918920165       -2.5615925311
 H          8.4702123675       -3.6840094523       -1.4226243971
 H          8.9466979236       -2.1421244166        0.4458121234
 H          7.2441049168       -0.5225718379        1.1792885365
 H         -0.9768989736       -2.4731032200        0.9650465725
 H         -3.3853825459       -2.5171093214        0.7252948673
 H         -5.2821554941       -1.8145584545        2.0403888605
 H         -7.0491665698       -3.5263610351        2.1748005371
