92
 energy: -140.950090418824 gnorm: 0.000051078544 xtb: 6.7.1 (edcfbbe)
C           -4.26864627765591       -7.69116477478724       -0.23119009483642
C           -3.22967171365226       -8.60801218161302       -0.29328030821927
N           -1.95620379154363       -8.25333958440931       -0.31930282806640
C           -1.66280400221819       -6.96875149276991       -0.27741465794983
C           -2.61820690153646       -5.95298301650973       -0.20298109976943
C           -2.22663903061062       -4.54022543745729       -0.15443610085449
C           -2.93119667325006       -3.58104957588396       -0.87863483050735
C           -2.55459330386355       -2.25312078318333       -0.83617004826616
C           -1.47120047697930       -1.83491387714223       -0.07004551668471
Si          -0.95667282422724       -0.01501770056428        0.01535510864359
C           -1.62976458484249        0.77874659660155        1.59700825475385
C           -1.73676851557645        2.16326163650290        1.70270715077213
C           -2.20338952202107        2.75999304890276        2.85667740310781
C           -2.58816918188752        1.98353436257692        3.94802469012358
C           -3.09035926103444        2.61236465442753        5.17442200996084
C           -2.51287019720343        3.76953741228859        5.69494841772048
C           -3.02573021950950        4.31934676455753        6.85626159813731
C           -4.10233760400186        3.69094797236826        7.46442290445114
N           -4.66616070657789        2.59750853363465        6.97993906974991
C           -4.17631783698322        2.07854663172233        5.87147406612065
C           -2.49175670120730        0.59734827602284        3.84680703217406
C           -2.01687563928767        0.01034927035656        2.69059974858979
C           -1.65035418703665        0.92379298688057       -1.47542928756271
C           -0.87130879633124        1.19085855762720       -2.59687121577204
C           -1.39232732995232        1.85685382780135       -3.68863498072889
C           -2.72153364545927        2.27411012916143       -3.69518284771459
C           -3.28275165703451        2.97200984378587       -4.85690299904545
C           -2.55814823239553        3.93741665073768       -5.55440404829459
C           -3.13777374219771        4.56427302130167       -6.64300456931211
C           -4.42970565463381        4.20709468980804       -6.99964137987696
N           -5.12774276901815        3.28870223702950       -6.35348731751409
C           -4.57042235737613        2.69136269007706       -5.31883542129267
C           -3.50806889794903        2.01154141998082       -2.57503448518593
C           -2.97594599032888        1.35115747784746       -1.48593515448286
C            0.93492843631617        0.06472104963129        0.00834573946234
C            1.67127661794106       -0.78396859974591       -0.81461043612486
C            3.05018791708407       -0.73347501007745       -0.85036994110610
C            3.73321018428832        0.17251854666397       -0.04300869081929
N            5.13205114461851        0.22458871342243       -0.06748990240440
C            5.89640282731855        1.36486817388607       -0.21871196253581
C            5.49546023593213        2.67683649923332       -0.42655856863789
C            6.47891516085169        3.63581036700260       -0.57612463115375
C            7.83133146657703        3.30481484752537       -0.53048680318678
C            8.23615466260408        1.99753546377776       -0.34926102780105
C            7.26622012537837        1.01569396064674       -0.19652912960693
C            7.32174562461177       -0.40797578345983       -0.01591968930681
C            8.36603603664171       -1.31579806469748        0.10080026829961
C            8.06491447793886       -2.64881606649339        0.29562820180259
C            6.74293333229882       -3.07798584822225        0.38998418199563
C            5.68709905197006       -2.19399667465759        0.27661728292774
C            5.98303651308146       -0.85659214983689        0.05531600520594
C            3.01179232729469        1.02253412311008        0.79076745315231
C            1.63207118867942        0.96650729179535        0.80621270251934
C           -0.77145463316983       -2.79957646630741        0.65096934462852
C           -1.13675967367379       -4.13002436378866        0.61114769355699
C           -3.95611593384839       -6.34431320023795       -0.18393955632812
H           -5.29530009411337       -8.02341092143509       -0.21332851029188
H           -3.41974013656730       -9.67267967139018       -0.32376862076310
H           -0.60770796145548       -6.73031532988948       -0.32242755433050
H           -3.76503677798957       -3.88437575959973       -1.49570748464358
H           -3.10661450691365       -1.52475545352107       -1.41301780302402
H           -1.45468187645533        2.78047327772371        0.86093598062480
H           -2.29302294579336        3.83591873950350        2.90866466129272
H           -1.66024277867359        4.21756488285860        5.20410740241039
H           -2.59578609810725        5.21176873061711        7.28464823438547
H           -4.53533909814514        4.07530350521533        8.37839799965911
H           -4.68572711864778        1.19629355526339        5.50513535607460
H           -2.77248384232990       -0.01863109843140        4.68897115747860
H           -1.94683635277235       -1.06639640288490        2.63088264670418
H            0.16147417106525        0.87273761968960       -2.61093391180255
H           -0.77177687581799        2.03774336054728       -4.55486377537489
H           -1.56151888604716        4.20458025107704       -5.23203045691865
H           -2.60221910032660        5.31847939395623       -7.19901160554230
H           -4.93142627813824        4.67304248212740       -7.83733801706910
H           -5.17508701801728        1.93313009557365       -4.83763653199101
H           -4.53492707086961        2.34736963996125       -2.55446307210184
H           -3.59684829105840        1.16644313208142       -0.62030675477125
H            1.15100070667754       -1.49557398419631       -1.44015643452478
H            3.60637102595551       -1.38245530605896       -1.51074903639524
H            4.45001808230306        2.94104736366323       -0.48155623155279
H            6.19234058366533        4.66498382689512       -0.73563101767759
H            8.56948462767368        4.08409813065125       -0.64853238493784
H            9.28388902124414        1.73802352975900       -0.33046937187365
H            9.39054228937157       -0.98015468860931        0.04430944918511
H            8.86193742568998       -3.37167577153656        0.38642917942302
H            6.53843428522687       -4.12492443966708        0.55927879388424
H            4.66669379689733       -2.53430674363555        0.36941221865505
H            3.54023136369596        1.71034379046062        1.43441205383688
H            1.08232259247128        1.62656267242252        1.46168914103958
H            0.07675251867074       -2.49837760898321        1.25002499076841
H           -0.58882591967762       -4.85858226151801        1.19135832591217
H           -4.73706061849941       -5.60031086049013       -0.11234786920257
