  92
       -140.95000938
 C         -4.2602568416       -7.6915006054       -0.3192552153
 C         -3.2175283393       -8.6051032359       -0.3613984322
 N         -1.9447913220       -8.2467368481       -0.3536390287
 C         -1.6563861367       -6.9616747537       -0.2965253560
 C         -2.6161883582       -5.9488356339       -0.2392137460
 C         -2.2286240678       -4.5356951122       -0.1733336991
 C         -2.9194108136       -3.5729844298       -0.9059724033
 C         -2.5433650412       -2.2453929595       -0.8503590104
 C         -1.4740829198       -1.8309639075       -0.0626833681
 Si        -0.9539826275       -0.0129961802        0.0285439778
 C         -1.6225731285        0.7865028720        1.6090318359
 C         -1.6995949912        2.1728497255        1.7180798254
 C         -2.1628503008        2.7765491807        2.8696313488
 C         -2.5751681258        2.0055813819        3.9548233898
 C         -3.0733698136        2.6428125181        5.1785521337
 C         -2.4695571393        3.7814173525        5.7099839737
 C         -2.9797933261        4.3411817527        6.8677292008
 C         -4.0804107643        3.7410556206        7.4612071209
 N         -4.6691910344        2.6656480065        6.9661265846
 C         -4.1815037403        2.1369702720        5.8612890104
 C         -2.5097312076        0.6179751205        3.8499846464
 C         -2.0369554543        0.0237738340        2.6964231025
 C         -1.6536667249        0.9236745059       -1.4609655068
 C         -0.8893140718        1.1632240389       -2.5985743784
 C         -1.4187408644        1.8207552618       -3.6914327567
 C         -2.7417688345        2.2573257987       -3.6825054436
 C         -3.3127944043        2.9437632406       -4.8462350508
 C         -2.5862082548        3.8851236124       -5.5737619426
 C         -3.1752673739        4.5008140041       -6.6637524295
 C         -4.4783716244        4.1571493475       -6.9915042099
 N         -5.1788201879        3.2616298409       -6.3163436960
 C         -4.6125792506        2.6748025930       -5.2805969826
 C         -3.5129938415        2.0237938624       -2.5454450326
 C         -2.9726550591        1.3710739218       -1.4558007414
 C          0.9380369472        0.0623751602        0.0173891466
 C          1.6719174182       -0.7896899851       -0.8043176853
 C          3.0509404174       -0.7407026672       -0.8434244372
 C          3.7368271780        0.1670317674       -0.0404899855
 N          5.1356171928        0.2192104973       -0.0677485202
 C          5.8989331336        1.3609243971       -0.2139345810
 C          5.4970046200        2.6720238598       -0.4255737072
 C          6.4796398357        3.6328450286       -0.5685881184
 C          7.8323621902        3.3045769553       -0.5129780276
 C          8.2383899963        1.9981443944       -0.3283776010
 C          7.2692271571        1.0145138769       -0.1821997674
 C          7.3262598405       -0.4089056557       -0.0003434300
 C          8.3718225011       -1.3141516296        0.1245922149
 C          8.0724229538       -2.6477125034        0.3182796083
 C          6.7507604529       -3.0797498103        0.4032943463
 C          5.6936737257       -2.1982555068        0.2818674071
 C          5.9879677483       -0.8602653908        0.0620102308
 C          3.0178411583        1.0197549076        0.7927337010
 C          1.6382030820        0.9653175838        0.8114210514
 C         -0.7892894276       -2.7987488851        0.6683139862
 C         -1.1545603861       -4.1287713628        0.6160914388
 C         -3.9529617341       -6.3440449270       -0.2556087229
 H         -5.2860429369       -8.0266846096       -0.3292080348
 H         -3.4036581744       -9.6700582169       -0.4027210713
 H         -0.6012444798       -6.7199886300       -0.3142979019
 H         -3.7410850819       -3.8731555803       -1.5405903180
 H         -3.0844695204       -1.5141818162       -1.4339775499
 H         -1.3969195255        2.7859455797        0.8804393710
 H         -2.2285750341        3.8540570563        2.9245649962
 H         -1.5993186607        4.2070473118        5.2302657786
 H         -2.5295405633        5.2193702886        7.3045896398
 H         -4.5126178231        4.1338531750        8.3719308714
 H         -4.7109727620        1.2704971324        5.4858139532
 H         -2.8131963337        0.0060702740        4.6872494963
 H         -1.9907153310       -1.0541004481        2.6339394238
 H          0.1382702491        0.8294036125       -2.6248278342
 H         -0.8102814564        1.9794816251       -4.5705152443
 H         -1.5801784314        4.1429653304       -5.2737697906
 H         -2.6380315367        5.2365024689       -7.2425116230
 H         -4.9876203256        4.6147594511       -7.8292676471
 H         -5.2200321636        1.9347740947       -4.7751249577
 H         -4.5342221945        2.3753585038       -2.5126518656
 H         -3.5818841560        1.2074241559       -0.5777813684
 H          1.1497200662       -1.5031346717       -1.4261937802
 H          3.6046615331       -1.3920854540       -1.5035062821
 H          4.4514663300        2.9342230278       -0.4883570005
 H          6.1921835422        4.6613520276       -0.7308474836
 H          8.5698108933        4.0853219114       -0.6257732082
 H          9.2864609240        1.7405873256       -0.3023949206
 H          9.3959131801       -0.9761005643        0.0751382603
 H          8.8704580100       -3.3685907630        0.4156551455
 H          6.5473965735       -4.1270531701        0.5716878969
 H          4.6735301475       -2.5411351026        0.3676986805
 H          3.5483886905        1.7085302058        1.4336187872
 H          1.0910120781        1.6276059535        1.4667222008
 H          0.0475127724       -2.5003704141        1.2845335455
 H         -0.6186502383       -4.8598381749        1.2041930407
 H         -4.7377806040       -5.6029504458       -0.1992349857
