  64
  -96.1762442231000       0.579431794638760      !
 C          0.2513112930        1.9518844107        0.9539392561
 C         -0.8779135793        0.9429223148        0.6480577688
 C         -1.3384241848        0.3777485164        1.9950702281
 C         -3.3680292729        1.4865140958       -0.2043063644
 C         -4.0428779474        2.8146758683       -0.1270290897
 C         -5.4200381874        2.6666199258        0.4020378009
 C         -5.8658024040        1.5291337908        0.9282569267
 C         -5.1131781229        0.2217925178        1.0350279943
 C         -3.1924979971       -0.7906389638       -0.4177013409
 N         -2.9749756533       -2.0521799306        0.1230992184
 C         -1.6911566389       -2.4641317594        0.4290489881
 C         -1.6077185041       -3.7667664849        0.9471301531
 C         -0.4061273383       -4.3989844085        1.1657591268
 C          0.7600031242       -3.7466735502        0.8191735185
 C          0.6979360442       -2.4364631526        0.3569665237
 C          1.9621613446       -1.8346512045       -0.0942576523
 O          2.8326474794       -2.3998702278       -0.7254051550
 C          4.1312599772        0.8646730393       -0.5330249032
 C          5.3927268213        1.5145190372       -0.2214728835
 C          5.7245057427        2.1558374560        0.9180358789
 C          4.9324906497        2.2063686186        2.1181666362
 C          4.1636941833        1.1910500122        2.5193356708
 C          4.1588000785       -0.0938624400        1.7509732375
 C         -0.5057940107       -1.7197804970        0.2360829087
 C          3.7450635482        1.0053124452       -1.8849327397
 C          3.4331538531        0.1933861263        0.4675579733
 C          2.0747524231       -0.3449621120        0.4094814825
 C          1.0808990403       -0.0353635558       -0.6211372330
 C          1.3495208110        0.3116078213       -1.9546727258
 C          2.5382055701        0.7298650963       -2.5217008957
 S         -0.0929527007        0.1482726928       -2.9698056889
 C         -1.1044507426       -0.2482579479       -1.5947019222
 C         -2.4088215111       -0.4826492041       -1.6358125591
 C         -3.9392049973        0.2041178078        0.1004183194
 C         -2.9521121944        2.5037924110        0.8595742745
 C         -1.9290777398        1.8571183343       -0.0310342752
 C         -0.3649085748       -0.2659004506       -0.2882354625
 H          0.9781418991        1.5679982972        1.6592314779
 H          0.7735166713        2.2580730546        0.0524407526
 H         -0.2009127348        2.8364529159        1.3987454814
 H         -1.4335230227        1.1785663851        2.7242399328
 H         -2.2855970997       -0.1419211008        1.9206532925
 H         -0.5962824804       -0.3244709055        2.3694525615
 H         -3.8774497253        3.5735158225       -0.8848758902
 H         -6.0675898584        3.5303879137        0.3569471651
 H         -6.8717393423        1.4921335757        1.3251626445
 H         -5.7965428646       -0.6002629286        0.8001880262
 H         -3.7156891944       -2.4712021251        0.6658200773
 H         -2.5330343319       -4.2907485715        1.1404862428
 H         -0.3808560497       -5.4032469908        1.5588531020
 H          1.7206542618       -4.2303278604        0.8896055500
 H          6.0623130311        1.6349472411       -1.0639901157
 H          6.6313774976        2.7474436387        0.9234955915
 H          4.9995285877        3.1100979573        2.7089391183
 H          3.5362682839        1.2723269462        3.3955116336
 H          5.1882507441       -0.3808698150        1.5267096126
 H          4.5011398795        1.4309710419       -2.5303959999
 H          3.6735568932       -0.8924397574        2.3094804882
 H          1.6378512000       -0.3555681608        1.4077687111
 H          2.5078796121        0.9169818075       -3.5868313108
 H         -2.9677580809       -0.4223960433       -2.5577284849
 H         -4.8027928922        0.0818682866        2.0812314466
 H         -3.0614435219        2.4537459720        1.9211725271
 H         -1.4822444929        2.4685668534       -0.8119025449
  64
  -96.1759414043000       0.420568205361240      !
 C          0.2680136933        1.9611527816        0.9078908700
 C         -0.8662056644        0.9512228887        0.6249579677
 C         -1.3217201795        0.4132241405        1.9844278800
 C         -3.3566527572        1.4813367841       -0.2278498496
 C         -4.0301565727        2.8113871510       -0.1795674256
 C         -5.4050140639        2.6765679803        0.3589748200
 C         -5.8474771481        1.5528465453        0.9166712452
 C         -5.0927552355        0.2494354730        1.0542079911
 C         -3.1871849501       -0.8015802099       -0.3914255518
 N         -2.9694618294       -2.0505043090        0.1778966864
 C         -1.6840888125       -2.4601817606        0.4778414641
 C         -1.5943900965       -3.7526244352        1.0197197222
 C         -0.3902111137       -4.3843672005        1.2257357302
 C          0.7707405973       -3.7432171819        0.8419637833
 C          0.7027133827       -2.4402654996        0.3613857345
 C          1.9576507035       -1.8417554463       -0.1200641220
 O          2.8152575692       -2.4085256778       -0.7681550293
 C          4.0972555571        0.9434585939       -0.5373136529
 C          5.3291119623        1.6309722298       -0.1965584405
 C          5.6606169255        2.1878848811        0.9877569902
 C          4.9111846873        2.0927295158        2.2114791467
 C          4.1989001861        1.0128583781        2.5442209336
 C          4.2147874088       -0.1955595724        1.6617545853
 C         -0.5006494975       -1.7213935955        0.2551703103
 C          3.6894898362        1.1355084256       -1.8765371644
 C          3.4435780850        0.1818163078        0.4294514629
 C          2.0844521495       -0.3542344348        0.3871411399
 C          1.0813163736       -0.0483937405       -0.6339086231
 C          1.3347531973        0.3205579517       -1.9648946216
 C          2.4996499169        0.8113251695       -2.5226058076
 S         -0.1056590567        0.1147978783       -2.9768304292
 C         -1.1084491696       -0.2788995266       -1.5938963348
 C         -2.4119751241       -0.5200262629       -1.6222018633
 C         -3.9273105683        0.2067273124        0.1096494896
 C         -2.9354196808        2.5231254578        0.8097849011
 C         -1.9167723398        1.8543451444       -0.0691394500
 C         -0.3621441981       -0.2767255741       -0.2911475926
 H          1.0039538329        1.5816162695        1.6062772358
 H          0.7783673433        2.2603514788       -0.0025938217
 H         -0.1780209023        2.8497044185        1.3512004868
 H         -1.4141517740        1.2287473666        2.6974189319
 H         -2.2687630950       -0.1083713603        1.9246940780
 H         -0.5770765539       -0.2804378045        2.3696501335
 H         -3.8677295757        3.5515635841       -0.9562788652
 H         -6.0532604955        3.5385612023        0.2944245142
 H         -6.8512785051        1.5257208231        1.3196499456
 H         -5.7773266563       -0.5797325180        0.8502749642
 H         -3.7068393840       -2.4556839776        0.7351908026
 H         -2.5169949576       -4.2702731289        1.2410573066
 H         -0.3599004747       -5.3810789040        1.6373459097
 H          1.7307794127       -4.2298053162        0.8995108678
 H          5.9683912629        1.8632553508       -1.0392902059
 H          6.5330337281        2.8284780798        1.0187983981
 H          4.9636749013        2.9403477589        2.8814671039
 H          3.6016823867        0.9878383314        3.4446695471
 H          5.2455947355       -0.4250567901        1.3849394468
 H          4.4149312530        1.6350290582       -2.5042123751
 H          3.7704252868       -1.0586705546        2.1540956497
 H          1.6611844290       -0.3666702267        1.3917651707
 H          2.4573412458        1.0281999831       -3.5816567494
 H         -2.9781604163       -0.4767559132       -2.5406097212
 H         -4.7718880469        0.1407315151        2.1009704229
 H         -3.0401635100        2.4991459274        1.8727255493
 H         -1.4714668683        2.4466854159       -0.8654243604
