  64
        -96.58554672
 C          0.2513112930        1.9518844107        0.9539392561
 C         -0.8779135793        0.9429223148        0.6480577688
 C         -1.3384241848        0.3777485164        1.9950702281
 C         -3.3680292729        1.4865140958       -0.2043063644
 C         -4.0428779474        2.8146758683       -0.1270290897
 C         -5.4200381874        2.6666199258        0.4020378009
 C         -5.8658024040        1.5291337908        0.9282569267
 C         -5.1131781229        0.2217925178        1.0350279943
 C         -3.1924979971       -0.7906389638       -0.4177013409
 N         -2.9749756533       -2.0521799306        0.1230992184
 C         -1.6911566389       -2.4641317594        0.4290489881
 C         -1.6077185041       -3.7667664849        0.9471301531
 C         -0.4061273383       -4.3989844085        1.1657591268
 C          0.7600031242       -3.7466735502        0.8191735185
 C          0.6979360442       -2.4364631526        0.3569665237
 C          1.9621613446       -1.8346512045       -0.0942576523
 O          2.8326474794       -2.3998702278       -0.7254051550
 C          4.1312599772        0.8646730393       -0.5330249032
 C          5.3927268213        1.5145190372       -0.2214728835
 C          5.7245057427        2.1558374560        0.9180358789
 C          4.9324906497        2.2063686186        2.1181666362
 C          4.1636941833        1.1910500122        2.5193356708
 C          4.1588000785       -0.0938624400        1.7509732375
 C         -0.5057940107       -1.7197804970        0.2360829087
 C          3.7450635482        1.0053124452       -1.8849327397
 C          3.4331538531        0.1933861263        0.4675579733
 C          2.0747524231       -0.3449621120        0.4094814825
 C          1.0808990403       -0.0353635558       -0.6211372330
 C          1.3495208110        0.3116078213       -1.9546727258
 C          2.5382055701        0.7298650963       -2.5217008957
 S         -0.0929527007        0.1482726928       -2.9698056889
 C         -1.1044507426       -0.2482579479       -1.5947019222
 C         -2.4088215111       -0.4826492041       -1.6358125591
 C         -3.9392049973        0.2041178078        0.1004183194
 C         -2.9521121944        2.5037924110        0.8595742745
 C         -1.9290777398        1.8571183343       -0.0310342752
 C         -0.3649085748       -0.2659004506       -0.2882354625
 H          0.9781418991        1.5679982972        1.6592314779
 H          0.7735166713        2.2580730546        0.0524407526
 H         -0.2009127348        2.8364529159        1.3987454814
 H         -1.4335230227        1.1785663851        2.7242399328
 H         -2.2855970997       -0.1419211008        1.9206532925
 H         -0.5962824804       -0.3244709055        2.3694525615
 H         -3.8774497253        3.5735158225       -0.8848758902
 H         -6.0675898584        3.5303879137        0.3569471651
 H         -6.8717393423        1.4921335757        1.3251626445
 H         -5.7965428646       -0.6002629286        0.8001880262
 H         -3.7156891944       -2.4712021251        0.6658200773
 H         -2.5330343319       -4.2907485715        1.1404862428
 H         -0.3808560497       -5.4032469908        1.5588531020
 H          1.7206542618       -4.2303278604        0.8896055500
 H          6.0623130311        1.6349472411       -1.0639901157
 H          6.6313774976        2.7474436387        0.9234955915
 H          4.9995285877        3.1100979573        2.7089391183
 H          3.5362682839        1.2723269462        3.3955116336
 H          5.1882507441       -0.3808698150        1.5267096126
 H          4.5011398795        1.4309710419       -2.5303959999
 H          3.6735568932       -0.8924397574        2.3094804882
 H          1.6378512000       -0.3555681608        1.4077687111
 H          2.5078796121        0.9169818075       -3.5868313108
 H         -2.9677580809       -0.4223960433       -2.5577284849
 H         -4.8027928922        0.0818682866        2.0812314466
 H         -3.0614435219        2.4537459720        1.9211725271
 H         -1.4822444929        2.4685668534       -0.8119025449
