  99
  -155.022004782100        1.00000000000000      !
 C         -6.8030212372        5.3363950170        0.2339905082
 C         -5.4964654992        5.6081857971        0.6094698391
 C         -4.4981675475        4.6868620120        0.3588980123
 C         -4.8027250347        3.4828707609       -0.2728129177
 C         -3.7552801015        2.4937240038       -0.5182460691
 N         -4.0923206777        1.3720546091       -1.1468109395
 C         -3.1066632573        0.5095220917       -1.3650112964
 C         -3.4336797202       -0.7343664076       -2.0609678658
 C         -2.4269540746       -1.5014420470       -2.6411213014
 C         -2.7406218113       -2.6953097091       -3.2627462152
 C         -4.0552119358       -3.1318258892       -3.3074830673
 C         -5.0618934250       -2.3621806610       -2.7472473134
 C         -4.7562825787       -1.1652733368       -2.1293392510
 N         -1.8501067244        0.6924864339       -0.9679102096
 C         -1.6140246850        1.8200101972       -0.3022814601
 C         -0.2835429268        2.0083989396        0.2813109326
 C         -0.0401595883        3.0743831798        1.1457676235
 C          1.1910149775        3.1885790353        1.7615882976
 C          2.1707504885        2.2324681394        1.5507981101
 C          1.9405472432        1.1563857175        0.6960925936
 C          2.9682410564        0.1125459770        0.5178699916
 C          4.2900628186        0.4744318038        0.2942782040
 C          5.2721613115       -0.4901064421        0.0999147192
 N          6.6004200300       -0.1056873558       -0.1291074442
 C          7.0284053395        0.8169079643       -1.0629874539
 C          6.2963551952        1.5324471494       -1.9999106810
 C          6.9851294343        2.3820407684       -2.8441526168
 C          8.3699445040        2.5165666980       -2.7709532554
 C          9.1060621048        1.7898686793       -1.8568973762
 C          8.4364315747        0.9291218106       -0.9971440371
 C          8.8699979996        0.0294366233        0.0345660229
 C         10.1130696638       -0.2866968055        0.5667279608
 C         10.1782840411       -1.2045611761        1.5957463347
 C          9.0226024680       -1.7934495193        2.1045378313
 C          7.7747572409       -1.4950542333        1.5920529006
 C          7.7050878359       -0.5913585124        0.5412944656
 C          4.9277394675       -1.8381447810        0.1310423193
 C          3.6176328960       -2.2045583657        0.3695624500
 C          2.6308078662       -1.2485358460        0.5733634677
 C          1.2340256339       -1.6448432710        0.8258153681
 C          0.5735974368       -1.2379485164        1.9809442581
 C         -0.7822142516       -1.4475743310        2.1270363504
 C         -1.5150600442       -2.0263281715        1.0929562444
 N         -2.9128457945       -2.0529351323        1.1424248344
 C         -3.7312696219       -3.0625228337        0.6708939424
 C         -3.4121835898       -4.3571691628        0.2861331804
 C         -4.4401209637       -5.1824511763       -0.1270401593
 C         -5.7625923740       -4.7468388404       -0.1431464356
 C         -6.0922972669       -3.4739836802        0.2754379398
 C         -5.0746006552       -2.6248435312        0.6880513379
 C         -5.0600866586       -1.2786730534        1.1864314578
 C         -6.0571950081       -0.3359678939        1.3998091624
 C         -5.7032976676        0.9060737895        1.8845005941
 C         -4.3702300216        1.2140165430        2.1424866218
 C         -3.3606670652        0.2943099412        1.9306786871
 C         -3.7093890017       -0.9629682539        1.4568885950
 C         -0.8399612118       -2.5289036165       -0.0162749428
 C          0.5228811859       -2.3538515737       -0.1368648894
 C          0.7170375979        1.0737514659        0.0407690364
 N         -2.5269294693        2.7594358341       -0.0815796973
 C         -6.1169297590        3.2156206514       -0.6514806846
 C         -7.1105811041        4.1405420697       -0.3968052204
 H         -7.5825611343        6.0574268092        0.4331379525
 H         -5.2593746878        6.5408031938        1.0999278971
 H         -3.4755061959        4.8808563601        0.6435355741
 H         -1.4098004954       -1.1424727489       -2.5985809685
 H         -1.9589126419       -3.2903796173       -3.7129905386
 H         -4.2956128679       -4.0707886683       -3.7839372186
 H         -6.0861171356       -2.7007500433       -2.7897892381
 H         -5.5249459542       -0.5538848599       -1.6831431762
 H         -0.8262598111        3.7902441644        1.3272251493
 H          1.3863905406        4.0158690452        2.4280887941
 H          3.1149584685        2.3055933338        2.0717795718
 H          4.5603680354        1.5197761466        0.2623157511
 H          5.2251194243        1.4232888256       -2.0774099185
 H          6.4374975018        2.9525980873       -3.5796366460
 H          8.8707381805        3.1935444505       -3.4469108750
 H         10.1807235478        1.8817301621       -1.8102055191
 H         11.0068609768        0.1815971915        0.1828871735
 H         11.1352324297       -1.4664395675        2.0220495510
 H          9.1036835142       -2.4963338404        2.9206070229
 H          6.8838447655       -1.9433852805        2.0053326267
 H          5.6843167159       -2.5879987162       -0.0439792241
 H          3.3498498650       -3.2506675401        0.4054690906
 H          1.1279881111       -0.7401572805        2.7635410934
 H         -1.2810711002       -1.1478905663        3.0359478757
 H         -2.3968291637       -4.7212817720        0.3232095697
 H         -4.2124227155       -6.1918199112       -0.4369732359
 H         -6.5372776008       -5.4225426194       -0.4740690700
 H         -7.1191796338       -3.1409638301        0.2878397046
 H         -7.0879190784       -0.5757883035        1.1854010393
 H         -6.4603519000        1.6566733981        2.0565069092
 H         -4.1155292982        2.1975064164        2.5099803842
 H         -2.3310369918        0.5686577670        2.1058635585
 H         -1.3960733183       -3.0042787406       -0.8081086318
 H          1.0339573265       -2.7086723046       -1.0206568900
 H          0.5155377357        0.2784969311       -0.6582454965
 H         -6.3351605740        2.2780744309       -1.1386784887
 H         -8.1294771812        3.9320513440       -0.6891344055
