  42
  -75.0214059100000       0.551697873775622      !
 C         -4.4122476542       -4.0532113630        0.0007479924
 C         -5.2317686263       -2.9193303484       -0.0001962940
 C         -4.6860661010       -1.6583472592       -0.0002945853
 C         -3.2929351225       -1.4961316361       -0.0001120433
 N         -2.7382349194       -0.2771465655        0.0001506062
 C         -1.4293944412       -0.1539904902       -0.0004685570
 C         -0.5930763856       -1.3105980877       -0.0017132510
 N         -1.1205349854       -2.5147438759       -0.0012055518
 C         -2.4520947422       -2.6592076886       -0.0001659591
 C         -3.0436342015       -3.9308845550        0.0007814899
 C          0.8480107606       -1.1620136075       -0.0022577309
 N          1.6098411547       -2.2334518051       -0.0024079461
 C          2.9429177409       -2.1034200863       -0.0009471443
 C          3.7812212458       -3.2278726484       -0.0010040804
 C          5.1460149777       -3.0687189338        0.0013980183
 C          5.7172545513       -1.7915791830        0.0042065230
 C          4.9259492877       -0.6683000255        0.0042554197
 C          3.5290245153       -0.7933753678        0.0013251949
 N          2.7375013409        0.2869928318        0.0003854601
 C          1.4310169753        0.1407586683       -0.0016997074
 C          0.5820300899        1.3145671808       -0.0023187916
 N          1.1292609383        2.5098371145       -0.0045661699
 C          0.3503777231        3.5993811175       -0.0030635297
 C          0.9054780356        4.8873608885       -0.0063897144
 C          0.0856734625        5.9900321115       -0.0028731835
 C         -1.3059634758        5.8465196190        0.0045830783
 C         -1.8834852354        4.5997341393        0.0071980398
 C         -1.0772127019        3.4521596492        0.0026906413
 N         -1.6172757614        2.2265894525        0.0031843563
 C         -0.8375972062        1.1681950902        0.0001336914
 H         -4.8639492995       -5.0338875864        0.0011230071
 H         -6.3046922058       -3.0405018812       -0.0001449842
 H         -5.3013169640       -0.7724444967        0.0001612135
 H         -2.3960403657       -4.7933678876        0.0012155022
 H          3.3229774654       -4.2042242010       -0.0026683113
 H          5.7882250569       -3.9366879994        0.0017776391
 H          6.7923286005       -1.6915687594        0.0070697572
 H          5.3479173415        0.3242864847        0.0065423518
 H          1.9802220000        4.9779014561       -0.0113087112
 H          0.5167372262        6.9799406319       -0.0063783003
 H         -1.9300386379        6.7275501490        0.0068309177
 H         -2.9540853123        4.4691433502        0.0122810420
  42
  -75.0212097900000       0.448302126224378      !
 C         -4.4081325423       -4.0541232903        0.0774627985
 C         -5.2285216468       -2.9208111983        0.0803549091
 C         -4.6846748925       -1.6597835073        0.0342464648
 C         -3.2923545415       -1.4965065788       -0.0105726271
 N         -2.7387945405       -0.2772103104       -0.0383686421
 C         -1.4301431032       -0.1533642359       -0.0602608382
 C         -0.5934453899       -1.3095981610       -0.0658094054
 N         -1.1198471347       -2.5140779019       -0.0479098332
 C         -2.4508779482       -2.6590795645       -0.0144606890
 C         -3.0404815602       -3.9309869504        0.0278480362
 C          0.8476219996       -1.1611219303       -0.0675815774
 N          1.6088710117       -2.2327831436       -0.0499053437
 C          2.9414376257       -2.1030624341       -0.0156251416
 C          3.7783394191       -3.2277000268        0.0277370205
 C          5.1420069684       -3.0689177614        0.0844367285
 C          5.7134987141       -1.7919650003        0.0932125683
 C          4.9237583970       -0.6685777411        0.0442441811
 C          3.5277648674       -0.7931362939       -0.0089033417
 N          2.7370809199        0.2873950977       -0.0416938844
 C          1.4307379775        0.1414951006       -0.0659487859
 C          0.5815602616        1.3151178730       -0.0672578225
 N          1.1290202759        2.5103182509       -0.0561613054
 C          0.3506170507        3.5996527882       -0.0215984232
 C          0.9063611916        4.8870282925        0.0100458828
 C          0.0873726713        5.9888345156        0.0676801976
 C         -1.3041174602        5.8452010694        0.0903295185
 C         -1.8823405334        4.5992586397        0.0523720923
 C         -1.0768819043        3.4524462144       -0.0031795445
 N         -1.6174182066        2.2272860597       -0.0297130356
 C         -0.8381680463        1.1688789381       -0.0583161656
 H         -4.8582990886       -5.0347236488        0.1156298334
 H         -6.3007096483       -3.0424850276        0.1186306000
 H         -5.3009031329       -0.7746643175        0.0351800640
 H         -2.3917613219       -4.7925606332        0.0250252224
 H          3.3194620421       -4.2037452590        0.0211197838
 H          5.7829168525       -3.9370712900        0.1223360755
 H          6.7876390448       -1.6920010088        0.1384840054
 H          5.3460978658        0.3238174396        0.0493855619
 H          1.9809704814        4.9776686183       -0.0055155917
 H          0.5189388366        6.9781143666        0.0968552731
 H         -1.9274833757        6.7256669308        0.1355565053
 H         -2.9529260959        4.4688733072        0.0663647260
