  42
        -75.02140591
 C         -4.4122476542       -4.0532113630        0.0007479924
 C         -5.2317686263       -2.9193303484       -0.0001962940
 C         -4.6860661010       -1.6583472592       -0.0002945853
 C         -3.2929351225       -1.4961316361       -0.0001120433
 N         -2.7382349194       -0.2771465655        0.0001506062
 C         -1.4293944412       -0.1539904902       -0.0004685570
 C         -0.5930763856       -1.3105980877       -0.0017132510
 N         -1.1205349854       -2.5147438759       -0.0012055518
 C         -2.4520947422       -2.6592076886       -0.0001659591
 C         -3.0436342015       -3.9308845550        0.0007814899
 C          0.8480107606       -1.1620136075       -0.0022577309
 N          1.6098411547       -2.2334518051       -0.0024079461
 C          2.9429177409       -2.1034200863       -0.0009471443
 C          3.7812212458       -3.2278726484       -0.0010040804
 C          5.1460149777       -3.0687189338        0.0013980183
 C          5.7172545513       -1.7915791830        0.0042065230
 C          4.9259492877       -0.6683000255        0.0042554197
 C          3.5290245153       -0.7933753678        0.0013251949
 N          2.7375013409        0.2869928318        0.0003854601
 C          1.4310169753        0.1407586683       -0.0016997074
 C          0.5820300899        1.3145671808       -0.0023187916
 N          1.1292609383        2.5098371145       -0.0045661699
 C          0.3503777231        3.5993811175       -0.0030635297
 C          0.9054780356        4.8873608885       -0.0063897144
 C          0.0856734625        5.9900321115       -0.0028731835
 C         -1.3059634758        5.8465196190        0.0045830783
 C         -1.8834852354        4.5997341393        0.0071980398
 C         -1.0772127019        3.4521596492        0.0026906413
 N         -1.6172757614        2.2265894525        0.0031843563
 C         -0.8375972062        1.1681950902        0.0001336914
 H         -4.8639492995       -5.0338875864        0.0011230071
 H         -6.3046922058       -3.0405018812       -0.0001449842
 H         -5.3013169640       -0.7724444967        0.0001612135
 H         -2.3960403657       -4.7933678876        0.0012155022
 H          3.3229774654       -4.2042242010       -0.0026683113
 H          5.7882250569       -3.9366879994        0.0017776391
 H          6.7923286005       -1.6915687594        0.0070697572
 H          5.3479173415        0.3242864847        0.0065423518
 H          1.9802220000        4.9779014561       -0.0113087112
 H          0.5167372262        6.9799406319       -0.0063783003
 H         -1.9300386379        6.7275501490        0.0068309177
 H         -2.9540853123        4.4691433502        0.0122810420
