51
 energy: -72.485479858230 gnorm: 0.000149849048 xtb: 6.7.1 (edcfbbe)
C            5.00795183824612       -0.18704929210582       -0.07133469620242
C            3.69080835016507       -0.90250672981177       -0.04447556942608
C            3.61760954045316       -2.28775489833538       -0.01323170659409
C            2.39275913261926       -2.92272467713722        0.00687504679670
C            1.20982314397543       -2.18647052726503        0.00418602086451
C            1.26345832976044       -0.78995479608304       -0.01322946804289
C            2.50575826322144       -0.17824243969383       -0.04371503125535
C           -0.00001499082568        0.06175702771263        0.00005349626560
C            0.07865221592440        0.89047975888517        1.27614329248722
C           -0.42126207308086        0.36302178869591        2.46133593023167
C           -0.30712195027769        1.05693454531005        3.65214576385191
C            0.31956053841169        2.29028749250635        3.68249135253131
C            0.83624790640293        2.81746533561184        2.51231728110684
C            0.72111865517882        2.12261347809860        1.32122466613574
C           -0.07862699999287        0.89107854029086       -1.27563778852389
C           -0.72068991982295        2.12344342763441       -1.32009252124794
C           -0.83578137204980        2.81883108607326       -2.51087919667868
C           -0.31946069419365        2.29196892057096       -3.68135631111235
C            0.30680591227020        1.05838748548687       -3.65163462706993
C            0.42090556264306        0.36394005567559       -2.46113502925413
C           -1.26350007128915       -0.78994441516283        0.01298780029125
C           -2.50580930043226       -0.17822239428786        0.04283156778021
C           -3.69086068061493       -0.90248828993822        0.04346939041866
C           -5.00800911355637       -0.18701633358504        0.06970060401020
C           -3.61765291247251       -2.28774646919031        0.01274863133839
C           -2.39279542554812       -2.92272328044664       -0.00675874571266
C           -1.20986019710058       -2.18646903298595       -0.00393399241955
N           -0.00002014715708       -2.83989318771084        0.00044613139950
H            5.14543459402922        0.38660413665794        0.84516694198444
H            5.83098137196899       -0.89120145073982       -0.16405982980058
H            5.04782793098106        0.50898804983292       -0.90813278248360
H            4.52334405644533       -2.87681530729225       -0.01022483431634
H            2.33893945855303       -4.00264225731261        0.02136177344622
H            2.55993091467217        0.89914191947731       -0.07382688027334
H           -0.90819633799940       -0.60139831524056        2.45304527714969
H           -0.70739180975674        0.63002170166884        4.56038892970867
H            0.40845292097463        2.83461547699330        4.61119938435517
H            1.33412178449552        3.77655025714493        2.52429570885816
H            1.12987203279682        2.55621244182847        0.42022042768831
H           -1.12918062061368        2.55677845142607       -0.41883914916821
H           -1.33335819712897        3.77807594187444       -2.52238193120119
H           -0.40831183707413        2.83672048883617       -4.60981990359146
H            0.70680847240189        0.63173611093332       -4.56011788250667
H            0.90752040930679       -0.60064661407055       -2.45331162874576
H           -2.55999389564784        0.89917382060984        0.07251506595462
H           -5.83109333930500       -0.89116180491915        0.16199251969466
H           -5.04828837712423        0.50897675428516        0.90651892794698
H           -5.14503004964991        0.38669086617592       -0.84683492475649
H           -4.52338581365384       -2.87680914586778        0.00966581135313
H           -2.33897173683859       -4.00264593650402       -0.02086501185049
H           -0.00002047268364       -3.84796776463337        0.00050369856676
