51
 energy: -72.486779637311 gnorm: 0.000116417847 xtb: 6.7.1 (edcfbbe)
C            4.87162755124299        0.34183688557763        1.18629994749651
C            3.59588012321487       -0.43739233218527        1.07003614326246
C            3.55187911414057       -1.79347160897623        1.36397483617381
C            2.37214964268922       -2.50145567110250        1.24843433529903
C            1.21093799000540       -1.86810840182133        0.81698981270740
C            1.24421972731489       -0.51059589314130        0.48528096277635
C            2.43419974526203        0.18380128387115        0.62781381966508
C            0.00120783154571        0.13036131642731       -0.10696754008340
C            0.00628262389100        1.62024095437091        0.18818570688352
C            0.02862167554103        2.58856035492335       -0.80453656304035
C            0.03866332030844        3.93383681559372       -0.47240530346400
C            0.02737767253847        4.32731225865533        0.85324868062280
C            0.00735930231589        3.36608436219512        1.85124158563474
C           -0.00234441767507        2.02510043201528        1.52045605609279
C           -0.02558965753145       -0.13930616902193       -1.61401912597561
C            1.14966784014770       -0.33528331157894       -2.32925449793096
C            1.11912573113015       -0.56013805967883       -3.69441511223256
C           -0.08693068855468       -0.59102868000542       -4.37138458217949
C           -1.26264008941306       -0.39030574082264       -3.66964053780788
C           -1.23185530537828       -0.16625793878073       -2.30501895472068
C           -1.22583640987855       -0.51669607726673        0.51254473290136
C           -2.41604414472337        0.17272579812880        0.68414313578888
C           -3.56557766169541       -0.45588246990132        1.14334115315288
C           -4.84832774157677        0.30571585671778        1.29477486872108
C           -3.51045254647177       -1.81500570135701        1.42689197271347
C           -2.33054729569065       -2.51624879512097        1.28692115104299
C           -1.17988003062144       -1.87455560379030        0.83772336395310
N            0.01659775574542       -2.55937704730860        0.73075809842514
H            5.57108586551659       -0.15620670848652        1.85338233024146
H            5.34564883144130        0.43832146498599        0.20862673817232
H            4.67703227007362        1.34398851759879        1.56278327613349
H            4.44624677638889       -2.29991527170499        1.69725228650892
H            2.34109250929114       -3.55352871480060        1.49602588233749
H            2.46454491000934        1.23467446923855        0.37629312444343
H            0.03944101215089        2.29684088484165       -1.84425328897914
H            0.05577061469192        4.67632248007157       -1.25723631290387
H            0.03481565760794        5.37665029226221        1.10953448579244
H           -0.00045337561835        3.66374330091548        2.88982259659853
H           -0.01708729847744        1.27591298372229        2.29947858701057
H            2.10133441483732       -0.31157272745117       -1.82024642441390
H            2.04516954474223       -0.71088531363804       -4.23042459012635
H           -0.11064903392890       -0.76795333354583       -5.43670959680321
H           -2.21155577207721       -0.40732779232269       -4.18620384506173
H           -2.15915173603348       -0.01004506097250       -1.77491271778277
H           -2.45227342702930        1.22672058881446        0.44604091095042
H           -5.50237060444354        0.11743716287307        0.44230776239242
H           -5.37665099892061       -0.00401966879736        2.19434518225333
H           -4.65926179680427        1.37517536662135        1.34816608746441
H           -4.39759207226540       -2.32587861381351        1.77245371911255
H           -2.28946659525916       -3.56942966789115        1.52831471667516
H            0.02187501838246       -3.51934942022600        1.04440076246861
