51
 energy: -72.376277721375 gnorm: 0.000058953200 xtb: 6.7.1 (edcfbbe)
C            5.06774025879237       -0.26650454955012       -0.07914307692901
C            3.72023941173689       -0.79847510532875        0.28341238284465
C            3.61523838788209       -2.05668636088878        0.93750957809281
C            2.39632172706946       -2.55466762064643        1.28332174319092
C            1.21699511202223       -1.82852096156232        1.00369970630733
C            1.30427445473522       -0.55751087883436        0.33774001232636
C            2.55610017475797       -0.09401004903630       -0.00574403643783
C            0.04603845919142        0.18301938249466       -0.03292759973957
C            0.27292474011716        1.64098813539086        0.31901859784483
C            0.80634696438793        2.54844211951154       -0.59136498162038
C            1.04855920511942        3.85881540850648       -0.21732230228305
C            0.77311321354700        4.28131183723987        1.07095938159329
C            0.26018476692043        3.37830414323725        1.98941650643471
C            0.01540944634235        2.07063495947943        1.61623107953801
C           -0.29334704581874       -0.06416617587929       -1.50291231823868
C            0.09308408499761       -1.24767313269442       -2.13337951565514
C           -0.26191480763647       -1.50047472408637       -3.44236608215813
C           -1.01304184292467       -0.58006196935660       -4.15950090684514
C           -1.40779006837953        0.59589673068540       -3.54035428539764
C           -1.06162974643356        0.84971621862405       -2.22893808369512
C           -1.19364302802677       -0.36881953485463        0.61391878963836
C           -2.40767049629912        0.30389713485305        0.59804187416532
C           -3.57780405661060       -0.26302738368381        1.05834486210886
C           -4.87133088208488        0.48088211116357        1.05589435606162
C           -3.55362067920666       -1.61144489853002        1.55801937363668
C           -2.37880612382790       -2.29740987779015        1.61582167962284
C           -1.17930916639444       -1.70605550486957        1.18175293381836
N            0.00664941198901       -2.33796936960083        1.34289109534511
H            4.98635093153340        0.70387686291012       -0.56199053808940
H            5.69009799145531       -0.16178870473633        0.81083186658726
H            5.58046495748263       -0.95129717996088       -0.75649512216902
H            4.51577981332231       -2.61083989467703        1.15462257616693
H            2.30748071620770       -3.51291459442331        1.77810408324711
H            2.64176290865454        0.85445793436686       -0.51445287517887
H            1.02790293881067        2.23340162659697       -1.60094831515536
H            1.45709081416413        4.55245492593716       -0.93847795310408
H            0.96010321120194        5.30499088774619        1.36016134451952
H            0.05117157154453        3.69525136168417        3.00091627512763
H           -0.38314319352628        1.37077788711651        2.33704406585536
H            0.68855131165944       -1.97345379771984       -1.59896232570710
H            0.05367753736317       -2.42178496718822       -3.91094290223519
H           -1.28758093679618       -0.77785906988988       -5.18468043589035
H           -1.99568193226376        1.32129109183553       -4.08477636968246
H           -1.38746097639867        1.76915615296663       -1.76702401742934
H           -2.43469557061999        1.31479419042089        0.21792072546721
H           -4.74426914040063        1.48575719776187        0.66132636374762
H           -5.60937847002804       -0.04333543533897        0.44675021886434
H           -5.27516658427405        0.55020369453175        2.06738073633376
H           -4.47515190490488       -2.06000578931505        1.89331727788632
H           -2.34501358081577       -3.30507671365155        2.00990731645271
H           -0.00748602512347       -3.25361313508250        1.77820952192258
