  51
        -72.48676573
 C          4.8704408793        0.3448503324        1.1971425418
 C          3.5972048727       -0.4376206789        1.0734663223
 C          3.5531169262       -1.7948808854        1.3604080217
 C          2.3731754418       -2.5024821465        1.2408857540
 C          1.2123225926       -1.8668872583        0.8125522938
 C          1.2456907571       -0.5073309977        0.4874414182
 C          2.4353939462        0.1863046170        0.6339706657
 C          0.0036478786        0.1337216666       -0.1065294598
 C          0.0070840923        1.6237299018        0.1874394993
 C          0.0305623682        2.5911688122       -0.8062440257
 C          0.0363251141        3.9369259469       -0.4757232757
 C          0.0203402811        4.3318675800        0.8494564064
 C          0.0003377307        3.3715362535        1.8484855067
 C         -0.0054436688        2.0300914370        1.5192577615
 C         -0.0225344461       -0.1383755727       -1.6131434467
 C          1.1496137619       -0.3642868516       -2.3243423528
 C          1.1172154761       -0.5944983459       -3.6886736758
 C         -0.0874607291       -0.6003850946       -4.3686743949
 C         -1.2600149912       -0.3689545245       -3.6709829854
 C         -1.2274339339       -0.1400393384       -2.3072766372
 C         -1.2243923330       -0.5144914199        0.5105981271
 C         -2.4148562959        0.1743222850        0.6851999692
 C         -3.5640283120       -0.4565129656        1.1415663887
 C         -4.8471803561        0.3024711948        1.3024645650
 C         -3.5089412941       -1.8171869934        1.4188602171
 C         -2.3293396995       -2.5179031439        1.2754205819
 C         -1.1784928337       -1.8737205261        0.8297618356
 N          0.0182494202       -2.5578971128        0.7208123818
 H          5.6158311286       -0.2126218993        1.7592274659
 H          5.2790213215        0.5620235307        0.2094565899
 H          4.6896423476        1.2944742580        1.6977898843
 H          4.4473246657       -2.3035197695        1.6908473839
 H          2.3417585816       -3.5559264535        1.4824275771
 H          2.4671977621        1.2380155362        0.3859068687
 H          0.0447135608        2.2985214893       -1.8457302228
 H          0.0536768923        4.6786943874       -1.2615491592
 H          0.0244406772        5.3815934157        1.1046818644
 H         -0.0094348650        3.6702560017        2.8867174372
 H         -0.0182951492        1.2817769688        2.2991079681
 H          2.1004404031       -0.3606110350       -1.8132133675
 H          2.0408805379       -0.7694598617       -4.2214562145
 H         -0.1125751032       -0.7817452119       -5.4332453947
 H         -2.2076150438       -0.3654285407       -4.1901318668
 H         -2.1519304585        0.0410329547       -1.7801683082
 H         -2.4509039046        1.2297148181        0.4524210496
 H         -5.5360222816        0.0581845812        0.4930148217
 H         -5.3324564843        0.0418238592        2.2414213693
 H         -4.6675204928        1.3746610246        1.2859797209
 H         -4.3965108361       -2.3289828319        1.7620612051
 H         -2.2882344719       -3.5725161983        1.5113218313
 H          0.0232517363       -3.5193579677        1.0301805065
