  92
       -119.45678225
 C          0.4045591053        2.5224702708       -2.9457713525
 C          0.4107649768        2.7839579533       -1.4393861734
 C         -0.3426693986        4.0686843569       -1.1004799561
 C          1.8291427870        2.7987628581       -0.9276392200
 C          2.6559567369        3.8867731451       -1.1765223715
 C          3.9591109485        3.9192149037       -0.7156045696
 C          4.4587023683        2.8496947481        0.0060328118
 C          3.6557196331        1.7502771916        0.2464142069
 C          2.3424992673        1.7103596632       -0.2154705000
 P          1.2555536855        0.2390416801        0.0338216922
 C          2.4896114556       -0.9538995206        0.6896829825
 C          2.4855329483       -1.3560881317        2.0225438039
 C          3.3950531002       -2.2875562439        2.4870901472
 C          4.3204238457       -2.8358455661        1.6174351851
 C          4.3095603021       -2.4668376595        0.2842187012
 C          3.3963397755       -1.5418532972       -0.2047269312
 C          3.3880501094       -1.2026864567       -1.6752967170
 C          4.6852271314       -0.5185580639       -2.1081055651
 C          3.1428244577       -2.4565368468       -2.5159505108
 C          0.4522909740        0.7894098660        1.6008779790
 C          1.1633363664        1.5936151696        2.4936667574
 C          0.6000669074        2.0484870798        3.6686059117
 C         -0.7031478778        1.6981442569        3.9875442717
 C         -1.4146072308        0.8997092464        3.1187557962
 C         -0.8671137227        0.4542987546        1.9108486967
 P         -2.0825074699       -0.6130494478        1.0349511737
 C         -1.3257901149       -1.1798615014       -0.5418597981
 C         -1.5016328828       -0.4722390390       -1.7276023500
 C         -1.0723440712       -0.9972518764       -2.9312297658
 C         -0.5069887677       -2.2591251406       -2.9650521595
 C         -0.3524557993       -2.9781790100       -1.7924539471
 C         -0.7390485236       -2.4522240410       -0.5687064596
 C         -0.5780039223       -3.2384822704        0.7096954610
 C          0.6622545826       -4.1299213339        0.7230604618
 C         -1.8325905302       -4.0803253372        0.9550345181
 C         -3.2068314354        0.6901924275        0.3808874084
 C         -2.9230684358        2.0477030753        0.5016032098
 C         -3.8180995209        3.0022625869        0.0560227103
 C         -5.0137252359        2.6094475978       -0.5183147793
 C         -5.3041483868        1.2629299496       -0.6402800861
 C         -4.4197001320        0.2896807827       -0.1951506050
 C         -4.7729860299       -1.1692537649       -0.3386292517
 C         -4.9230277093       -1.5622677393       -1.8080513047
 C         -6.0363008252       -1.5058851659        0.4540939000
 H          0.9562738569        3.2984964323       -3.4722606429
 H         -0.6162459982        2.5057391447       -3.3214466158
 H          0.8690616891        1.5618047582       -3.1594564871
 H         -0.1134747205        1.9513519088       -0.9512917059
 H          0.0579954322        4.9186695181       -1.6476326321
 H         -1.3925748680        3.9606461940       -1.3646049535
 H         -0.2725050590        4.2802829966       -0.0349568240
 H          2.2772338588        4.7269283428       -1.7395608399
 H          4.5827047146        4.7781657163       -0.9167443858
 H          5.4728662098        2.8675524485        0.3791069525
 H          4.0542007516        0.9153910201        0.8068775825
 H          1.7655452406       -0.9360316651        2.7098569545
 H          3.3811592687       -2.5810727439        3.5267478249
 H          5.0427668646       -3.5563311868        1.9725971724
 H          5.0262246661       -2.9134597481       -0.3896151841
 H          2.5551303967       -0.5092768425       -1.8575571995
 H          4.8320801346        0.4099213921       -1.5618694763
 H          4.6468320901       -0.2880154628       -3.1707622573
 H          5.5408895216       -1.1655756257       -1.9280755322
 H          2.2327962125       -2.9528414899       -2.1907497280
 H          3.0333513318       -2.1867992335       -3.5641406753
 H          3.9721202460       -3.1543705664       -2.4275069268
 H          2.1829781032        1.8650889102        2.2605368056
 H          1.1782611093        2.6696645568        4.3373077430
 H         -1.1531436813        2.0396844582        4.9083456385
 H         -2.4317526415        0.6111461279        3.3579886231
 H         -1.9707523356        0.5009738011       -1.7080722315
 H         -1.1969808058       -0.4302630880       -3.8426152974
 H         -0.1904617945       -2.6880809233       -3.9049100577
 H          0.0663781326       -3.9724578664       -1.8375717022
 H         -0.4801059670       -2.5133390683        1.5300609790
 H          1.5394913056       -3.5794480958        0.3934284874
 H          0.8457672643       -4.4893850983        1.7333285274
 H          0.5281116669       -4.9970279246        0.0801245692
 H         -2.0057449660       -4.7523807373        0.1167745424
 H         -1.7178934752       -4.6723298215        1.8602110283
 H         -2.7056367510       -3.4409638535        1.0707165572
 H         -1.9918693651        2.3669158914        0.9460173508
 H         -3.5807202048        4.0514643639        0.1594556124
 H         -5.7184414003        3.3489697075       -0.8699699733
 H         -6.2406082787        0.9652968849       -1.0891303093
 H         -3.9458054701       -1.7582568850        0.0791927385
 H         -5.7373851502       -1.0142651083       -2.2761802514
 H         -4.0041871750       -1.3505458879       -2.3508080900
 H         -5.1332457915       -2.6265232739       -1.8900935089
 H         -6.2383158071       -2.5736043432        0.4016684067
 H         -5.9107351888       -1.2278912121        1.4984691431
 H         -6.8983789088       -0.9744370600        0.0582087001
