  57
  -85.8353208031000       0.425321278844656      !
 C         -1.2982695837        3.6785499336       -2.0400919807
 C         -1.1460418496        2.5170320294       -2.7822855378
 C         -1.3007410237        1.2704018548       -2.1907081585
 C         -1.6092988539        1.2153070175       -0.8494396878
 C         -1.7622768057        2.3859378093       -0.0930748609
 C         -1.6080796906        3.6260358116       -0.6903765602
 C         -2.0695853843        2.0107143836        1.2782322362
 C         -2.3218673068        2.7803397826        2.4017781054
 C         -2.5916776374        2.1374565251        3.5993766627
 C         -2.6094833788        0.7528675563        3.6765068465
 C         -2.3584276503       -0.0252354887        2.5541667320
 C         -2.0906835754        0.6108855358        1.3621631027
 C         -1.8015260279       -0.0063169932        0.0162658953
 C         -2.8904705273       -0.9350949284       -0.4626713169
 C         -4.2267392645       -0.6598035051       -0.6505231465
 C         -5.0552697571       -1.6803447761       -1.0983886889
 C         -4.5498397832       -2.9471144908       -1.3494399370
 C         -3.2056338753       -3.2272330123       -1.1626889201
 C         -2.3728060528       -2.2138996203       -0.7173876771
 C         -0.9459989401       -2.1963543450       -0.4413993111
 C          0.0260575423       -3.1767285213       -0.5563111497
 C          1.3372250290       -2.8521512460       -0.2546500795
 C          1.6933877533       -1.5693024049        0.1599457169
 C          3.1017658019       -1.2580402251        0.4555267047
 C          3.7934895419       -2.0465629728        1.3450617886
 C          5.1227573929       -1.7671780860        1.6840637575
 C          5.7620736373       -0.6945726609        1.1294571088
 C          5.1015287903        0.1284223563        0.1939962600
 C          5.7542160899        1.2265474329       -0.4053798479
 C          5.1165639407        2.0029532358       -1.3305980530
 C          3.8002903446        1.7016362692       -1.7105836801
 C          3.1384176110        0.6471867581       -1.1458825651
 C          3.7557521993       -0.1560301768       -0.1624690215
 C          0.7068763973       -0.5911875432        0.3041710678
 C         -0.5941295700       -0.9114414757       -0.0030180267
 H         -1.1718271108        4.6373338125       -2.5215030606
 H         -0.9035931115        2.5827350359       -3.8328424575
 H         -1.1810939840        0.3644588278       -2.7673850138
 H         -1.7233394687        4.5339031723       -0.1170890178
 H         -2.3095710292        3.8588528318        2.3469879019
 H         -2.7925141126        2.7219100333        4.4854295371
 H         -2.8228542320        0.2739093523        4.6207579921
 H         -2.3738895240       -1.1038790694        2.6132334721
 H         -4.6200876058        0.3269766405       -0.4537029652
 H         -6.1062583638       -1.4850883321       -1.2524254660
 H         -5.2138666921       -3.7253732566       -1.6963908446
 H         -2.8166133498       -4.2152013347       -1.3599461450
 H         -0.2289082008       -4.1726188574       -0.8871355830
 H          2.1118070762       -3.5977660453       -0.3629417430
 H          3.2926461098       -2.8834145339        1.8106860193
 H          5.6323272580       -2.4023583523        2.3938449902
 H          6.7840246771       -0.4635796649        1.3940191077
 H          6.7752860016        1.4371209693       -0.1199242760
 H          5.6230673791        2.8423240760       -1.7841802036
 H          3.3115444626        2.3075491141       -2.4596928891
 H          2.1327202838        0.4146285125       -1.4616668742
 H          0.9656802324        0.3967456365        0.6570558976
  57
  -85.8352779934000       0.406483700027077      !
 C         -2.1272593451        4.0728577512       -1.5082807508
 C         -1.8144226694        3.0576249684       -2.3995983782
 C         -1.7330024715        1.7382664427       -1.9746069952
 C         -1.9706198318        1.4616991396       -0.6464447096
 C         -2.2895672905        2.4837118453        0.2592886307
 C         -2.3682793525        3.7976456632       -0.1717226617
 C         -2.4856567759        1.8905876673        1.5727596256
 C         -2.8182691207        2.4576685566        2.7919429677
 C         -2.9408239596        1.6304585446        3.8970641305
 C         -2.7348196042        0.2632062883        3.7898853645
 C         -2.4022002031       -0.3124393036        2.5707687858
 C         -2.2814251686        0.5069871105        1.4702441362
 C         -1.9389492182        0.1238991566        0.0509619964
 C         -2.8898741339       -0.8885495604       -0.5401819017
 C         -4.2544322503       -0.7890680730       -0.6975369125
 C         -4.9331196893       -1.8562436311       -1.2711460386
 C         -4.2535653109       -2.9955209247       -1.6755851691
 C         -2.8808651330       -3.0991472832       -1.5180303862
 C         -2.1971498766       -2.0382538202       -0.9471345985
 C         -0.7855082177       -1.8513740650       -0.6574044864
 C          0.3095663802       -2.6764555137       -0.8562805900
 C          1.5616445194       -2.2236471584       -0.4800623209
 C          1.7373135777       -0.9631647873        0.0920350058
 C          3.0751486314       -0.5216918088        0.5215904363
 C          3.2616144542       -0.1340853651        1.8278583303
 C          4.5276463252        0.2265722908        2.3049135781
 C          5.6104623810        0.1977267550        1.4720538980
 C          5.4619594340       -0.1610179035        0.1163325881
 C          6.5622234714       -0.1691114925       -0.7669971717
 C          6.4010667708       -0.4841220850       -2.0862483876
 C          5.1253731246       -0.7884484311       -2.5840021630
 C          4.0407324841       -0.8000408976       -1.7519977974
 C          4.1769053344       -0.5120515034       -0.3771042852
 C          0.6304203615       -0.1400425872        0.3048238933
 C         -0.6135666905       -0.5875683500       -0.0740544893
 H         -2.1837499785        5.0920505245       -1.8619098507
 H         -1.6322833049        3.2960325653       -3.4371698473
 H         -1.4891076219        0.9467245054       -2.6682253137
 H         -2.6114245545        4.5919549472        0.5183069678
 H         -2.9792578095        3.5218335224        2.8808979758
 H         -3.2017147454        2.0553447526        4.8553922776
 H         -2.8352556656       -0.3616977929        4.6651534627
 H         -2.2425764750       -1.3776868891        2.4863211289
 H         -4.7833905784        0.0985093364       -0.3819520266
 H         -6.0036123836       -1.7983956182       -1.4034511903
 H         -4.8031461953       -3.8131617939       -2.1188910694
 H         -2.3561938696       -3.9886825433       -1.8335726034
 H          0.1915660238       -3.6566419765       -1.2942277552
 H          2.4239587744       -2.8615155437       -0.6118689671
 H          2.4195995196       -0.1351903131        2.5055264693
 H          4.6399039334        0.5133706481        3.3403781685
 H          6.5945466807        0.4560281490        1.8361138598
 H          7.5375416795        0.0871343221       -0.3777911065
 H          7.2485163575       -0.4877513021       -2.7560012368
 H          5.0050742118       -1.0089700249       -3.6347304329
 H          3.0592235584       -1.0169294898       -2.1458914771
 H          0.7579682262        0.8382546706        0.7452285842
  57
  -85.8344441019000       0.168195021128267      !
 C         -2.6033083136        4.0607026436       -1.5776003955
 C         -2.2750325519        3.0656136110       -2.4859684677
 C         -2.0270168305        1.7672033838       -2.0605552182
 C         -2.1135893611        1.4901666769       -0.7139964008
 C         -2.4457840343        2.4926772734        0.2091131198
 C         -2.6904587175        3.7858803258       -0.2222326011
 C         -2.4755701108        1.9042219864        1.5388640648
 C         -2.7245148887        2.4627838925        2.7817881365
 C         -2.6712184923        1.6447996552        3.8992032581
 C         -2.3760983559        0.2948216119        3.7808774918
 C         -2.1290638005       -0.2726530326        2.5378961959
 C         -2.1829298321        0.5377859389        1.4254374024
 C         -1.9381511640        0.1634484918       -0.0163847632
 C         -2.8883957925       -0.8868500630       -0.5411704598
 C         -4.2632940536       -0.8390810231       -0.6045538337
 C         -4.9382959821       -1.9299407609       -1.1362019330
 C         -4.2446268958       -3.0393879092       -1.5959562694
 C         -2.8613207700       -3.0902840152       -1.5338672214
 C         -2.1813965224       -2.0070001595       -1.0017024568
 C         -0.7634810240       -1.7767848484       -0.7835982156
 C          0.3397073988       -2.5876786696       -0.9952629272
 C          1.5875499869       -2.1292085864       -0.6123301318
 C          1.7542123092       -0.8702600352       -0.0330842830
 C          3.0724999998       -0.4569973451        0.4749988021
 C          3.1666804352       -0.0360617410        1.7821664994
 C          4.4032307447        0.2712217520        2.3613830556
 C          5.5528387683        0.1473768962        1.6333376023
 C          5.5039657589       -0.2494303433        0.2810892300
 C          6.6782666438       -0.3611189562       -0.4931486804
 C          6.6191071991       -0.7121354738       -1.8118135315
 C          5.3765782597       -0.9439398071       -2.4203255755
 C          4.2210914290       -0.8547398538       -1.6949295194
 C          4.2487771912       -0.5359463290       -0.3202794781
 C          0.6420542420       -0.0478307171        0.1605145452
 C         -0.5998304090       -0.5060212664       -0.2123942213
 H         -2.7964112462        5.0625514161       -1.9326393061
 H         -2.2154421816        3.3027592253       -3.5379869290
 H         -1.7764395601        0.9912773233       -2.7693689429
 H         -2.9497118787        4.5630198894        0.4814080633
 H         -2.9518012447        3.5140040830        2.8797849544
 H         -2.8598570790        2.0639011989        4.8769114773
 H         -2.3362848503       -0.3223645629        4.6663599165
 H         -1.8967474703       -1.3237368583        2.4443119623
 H         -4.8027884401        0.0261985649       -0.2475259221
 H         -6.0166888048       -1.9137947431       -1.1928956865
 H         -4.7914567111       -3.8755587508       -2.0067427720
 H         -2.3255495870       -3.9568554192       -1.8921014820
 H          0.2282963212       -3.5705586770       -1.4287444085
 H          2.4499907353       -2.7696441108       -0.7278933915
 H          2.2709484642        0.0261842234        2.3837451949
 H          4.4387858638        0.5878664014        3.3935524693
 H          6.5146651900        0.3564036736        2.0792731754
 H          7.6283535856       -0.1562304865       -0.0201639960
 H          7.5230504726       -0.7991209683       -2.3965796137
 H          5.3392756588       -1.1907455392       -3.4713801898
 H          3.2676876841       -1.0144605179       -2.1756376720
 H          0.7609084719        0.9309209089        0.6025016176
