  78
       -130.57238679
 O         -1.3262250383       -2.3166098779       -2.0892658955
 C         -0.3403235844       -2.6340882536       -1.4152001021
 C          0.8004289242       -1.7321147255       -1.2208523660
 C          2.0931015933       -2.2072897976       -0.9467072469
 C          3.1145188111       -1.3341431772       -0.6741191678
 C          2.8780907177        0.0437057801       -0.6919077849
 N          3.9062130676        0.9317669407       -0.2857261134
 C          4.5043771187        1.7903443908       -1.1883202964
 C          4.1676832574        1.7937303677       -2.5412532807
 C          4.7852244031        2.6680561605       -3.4157605022
 C          5.7526314424        3.5501062668       -2.9629675988
 C          6.1157698445        3.5473358427       -1.6266611336
 C          5.5043807740        2.6740885640       -0.7427549749
 O          5.9171971309        2.7032384722        0.5579316513
 C          5.3312571047        1.8306826034        1.4350121383
 C          5.7679408217        1.8654410064        2.7487340830
 C          5.2016767725        1.0210988363        3.6888076410
 C          4.1918818425        0.1503035828        3.3117894465
 C          3.7487114460        0.1058748305        2.0032142581
 C          4.3195528249        0.9371279236        1.0393095607
 C          1.6321982548        0.5323687257       -1.0764100278
 C          0.6109969455       -0.3455846483       -1.3559227848
 C         -0.2158931328       -3.9396721497       -0.7330442451
 C         -0.5112387834       -5.1407806092       -1.3695492793
 C         -0.2516734177       -6.3384372059       -0.7326572720
 C          0.3065338638       -6.3501388707        0.5425211573
 C          0.5582283196       -5.1644594778        1.2041850256
 C          0.2538656226       -3.9524283209        0.5932484124
 C          0.3664520178       -2.6629415888        1.3066880472
 O          1.3516542100       -2.3540532162        1.9869890613
 C         -0.7841089907       -1.7683948858        1.1419701325
 C         -2.0698222453       -2.2455488132        0.8410955761
 C         -3.0999311861       -1.3729451473        0.6000457514
 C         -2.8798025497        0.0047788685        0.6806717823
 N         -3.9176113095        0.9001394835        0.3137220748
 C         -4.2958121248        0.9995001562       -1.0171867778
 C         -3.6933543222        0.2424264677       -2.0218342796
 C         -4.0959774235        0.3843820529       -3.3366064584
 C         -5.0972139432        1.2796958973       -3.6776597132
 C         -5.6999233019        2.0458739879       -2.6941361351
 C         -5.3044704095        1.9127832642       -1.3737812526
 O         -5.9276043229        2.7079598258       -0.4499121781
 C         -5.5602270013        2.5741758159        0.8581393868
 C         -6.2176077515        3.3584423892        1.7909679202
 C         -5.8971046291        3.2547745285        3.1344899171
 C         -4.9237262516        2.3580841045        3.5443894268
 C         -4.2606094928        1.5720112061        2.6209473478
 C         -4.5583389379        1.6731932052        1.2627180583
 C         -1.6414927995        0.4909043752        1.0909339018
 C         -0.6105272623       -0.3863440867        1.3342520510
 H          2.2821411895       -3.2697998258       -0.9281361071
 H          4.1021051432       -1.6990468668       -0.4337982021
 H          3.4232150776        1.1000915867       -2.8982633441
 H          4.5085670914        2.6562607022       -4.4583777392
 H          6.2313434068        4.2336183490       -3.6459020846
 H          6.8749609977        4.2120678119       -1.2473688319
 H          6.5482358160        2.5619522249        3.0106437364
 H          5.5460240259        1.0509795413        4.7103788105
 H          3.7363130233       -0.5062865589        4.0356219211
 H          2.9638460494       -0.5841938499        1.7364046399
 H          1.4688080725        1.5999679790       -1.1217155950
 H         -0.3643555619        0.0153777756       -1.6435719229
 H         -0.9116218787       -5.1175028053       -2.3725057521
 H         -0.4649525865       -7.2716991728       -1.2333731537
 H          0.5261645022       -7.2923222084        1.0234203221
 H          0.9580879532       -5.1590305088        2.2076139797
 H         -2.2477729419       -3.3081851425        0.7773836738
 H         -4.0815219528       -1.7380488038        0.3370031859
 H         -2.9175064470       -0.4669517689       -1.7796703319
 H         -3.6169012323       -0.2150590920       -4.0941213421
 H         -5.4092664539        1.3873625656       -4.7043772763
 H         -6.4776357952        2.7554356144       -2.9272451973
 H         -6.9785907612        4.0387119320        1.4438413914
 H         -6.4135254073        3.8675205511        3.8559618161
 H         -4.6790268976        2.2648000881        4.5910273744
 H         -3.5103904898        0.8666991940        2.9413753809
 H         -1.4927855977        1.5573145263        1.1864734055
 H          0.3597997940       -0.0278396406        1.6415674042
