  78
  -130.572386790000       0.509750202382067      !
 O         -1.3262250383       -2.3166098779       -2.0892658955
 C         -0.3403235844       -2.6340882536       -1.4152001021
 C          0.8004289242       -1.7321147255       -1.2208523660
 C          2.0931015933       -2.2072897976       -0.9467072469
 C          3.1145188111       -1.3341431772       -0.6741191678
 C          2.8780907177        0.0437057801       -0.6919077849
 N          3.9062130676        0.9317669407       -0.2857261134
 C          4.5043771187        1.7903443908       -1.1883202964
 C          4.1676832574        1.7937303677       -2.5412532807
 C          4.7852244031        2.6680561605       -3.4157605022
 C          5.7526314424        3.5501062668       -2.9629675988
 C          6.1157698445        3.5473358427       -1.6266611336
 C          5.5043807740        2.6740885640       -0.7427549749
 O          5.9171971309        2.7032384722        0.5579316513
 C          5.3312571047        1.8306826034        1.4350121383
 C          5.7679408217        1.8654410064        2.7487340830
 C          5.2016767725        1.0210988363        3.6888076410
 C          4.1918818425        0.1503035828        3.3117894465
 C          3.7487114460        0.1058748305        2.0032142581
 C          4.3195528249        0.9371279236        1.0393095607
 C          1.6321982548        0.5323687257       -1.0764100278
 C          0.6109969455       -0.3455846483       -1.3559227848
 C         -0.2158931328       -3.9396721497       -0.7330442451
 C         -0.5112387834       -5.1407806092       -1.3695492793
 C         -0.2516734177       -6.3384372059       -0.7326572720
 C          0.3065338638       -6.3501388707        0.5425211573
 C          0.5582283196       -5.1644594778        1.2041850256
 C          0.2538656226       -3.9524283209        0.5932484124
 C          0.3664520178       -2.6629415888        1.3066880472
 O          1.3516542100       -2.3540532162        1.9869890613
 C         -0.7841089907       -1.7683948858        1.1419701325
 C         -2.0698222453       -2.2455488132        0.8410955761
 C         -3.0999311861       -1.3729451473        0.6000457514
 C         -2.8798025497        0.0047788685        0.6806717823
 N         -3.9176113095        0.9001394835        0.3137220748
 C         -4.2958121248        0.9995001562       -1.0171867778
 C         -3.6933543222        0.2424264677       -2.0218342796
 C         -4.0959774235        0.3843820529       -3.3366064584
 C         -5.0972139432        1.2796958973       -3.6776597132
 C         -5.6999233019        2.0458739879       -2.6941361351
 C         -5.3044704095        1.9127832642       -1.3737812526
 O         -5.9276043229        2.7079598258       -0.4499121781
 C         -5.5602270013        2.5741758159        0.8581393868
 C         -6.2176077515        3.3584423892        1.7909679202
 C         -5.8971046291        3.2547745285        3.1344899171
 C         -4.9237262516        2.3580841045        3.5443894268
 C         -4.2606094928        1.5720112061        2.6209473478
 C         -4.5583389379        1.6731932052        1.2627180583
 C         -1.6414927995        0.4909043752        1.0909339018
 C         -0.6105272623       -0.3863440867        1.3342520510
 H          2.2821411895       -3.2697998258       -0.9281361071
 H          4.1021051432       -1.6990468668       -0.4337982021
 H          3.4232150776        1.1000915867       -2.8982633441
 H          4.5085670914        2.6562607022       -4.4583777392
 H          6.2313434068        4.2336183490       -3.6459020846
 H          6.8749609977        4.2120678119       -1.2473688319
 H          6.5482358160        2.5619522249        3.0106437364
 H          5.5460240259        1.0509795413        4.7103788105
 H          3.7363130233       -0.5062865589        4.0356219211
 H          2.9638460494       -0.5841938499        1.7364046399
 H          1.4688080725        1.5999679790       -1.1217155950
 H         -0.3643555619        0.0153777756       -1.6435719229
 H         -0.9116218787       -5.1175028053       -2.3725057521
 H         -0.4649525865       -7.2716991728       -1.2333731537
 H          0.5261645022       -7.2923222084        1.0234203221
 H          0.9580879532       -5.1590305088        2.2076139797
 H         -2.2477729419       -3.3081851425        0.7773836738
 H         -4.0815219528       -1.7380488038        0.3370031859
 H         -2.9175064470       -0.4669517689       -1.7796703319
 H         -3.6169012323       -0.2150590920       -4.0941213421
 H         -5.4092664539        1.3873625656       -4.7043772763
 H         -6.4776357952        2.7554356144       -2.9272451973
 H         -6.9785907612        4.0387119320        1.4438413914
 H         -6.4135254073        3.8675205511        3.8559618161
 H         -4.6790268976        2.2648000881        4.5910273744
 H         -3.5103904898        0.8666991940        2.9413753809
 H         -1.4927855977        1.5573145263        1.1864734055
 H          0.3597997940       -0.0278396406        1.6415674042
  78
  -130.572219810000       0.427187672985020      !
 O         -1.3202172768       -2.1655649436       -2.0784943209
 C         -0.3332308051       -2.5065625869       -1.4174187153
 C          0.8249123745       -1.6286267815       -1.2176318685
 C          2.1084972430       -2.1371391897       -0.9608962585
 C          3.1512526723       -1.2925244306       -0.6808653676
 C          2.9469133723        0.0903464980       -0.6734706540
 N          4.0036343750        0.9427763614       -0.2628498369
 C          4.6394969657        1.7772479186       -1.1624426242
 C          4.2869491143        1.8182984925       -2.5107960870
 C          4.9453675620        2.6648516477       -3.3829466180
 C          5.9702679680        3.4808452152       -2.9324090112
 C          6.3476027477        3.4406826932       -1.6004036952
 C          5.6946568464        2.5955562823       -0.7187951122
 O          6.1234989703        2.5852497838        0.5770092122
 C          5.5018648502        1.7330632636        1.4495522238
 C          5.9599041954        1.7203450563        2.7563613229
 C          5.3617444434        0.8923103667        3.6912435199
 C          4.2992051234        0.0857049345        3.3160793606
 C          3.8337948234        0.0892990924        2.0143771368
 C          4.4358075723        0.9043005822        1.0555475740
 C          1.7096347892        0.6136427428       -1.0393561945
 C          0.6661555263       -0.2359524225       -1.3270033346
 C         -0.2164572499       -3.8254856411       -0.7578492183
 C         -0.5093247191       -5.0174295015       -1.4108981736
 C         -0.2473889477       -6.2228266882       -0.7888735421
 C          0.3102528209       -6.2499392391        0.4859661345
 C          0.5592816079       -5.0725148533        1.1642537585
 C          0.2531376365       -3.8543791841        0.5682036754
 C          0.3556487287       -2.5673517800        1.2899726288
 O          1.3391686839       -2.2478040641        1.9669628034
 C         -0.8119590534       -1.6934774688        1.1330219219
 C         -2.0900354208       -2.2018656941        0.8497238934
 C         -3.1417492616       -1.3552663500        0.6121851091
 C         -2.9522402198        0.0282926881        0.6753959193
 N         -4.0173859997        0.8899996877        0.3086762815
 C         -4.4494524004        0.9159404350       -1.0100898099
 C         -3.8442665478        0.1526903013       -2.0087111142
 C         -4.3097059512        0.2128510466       -3.3090325165
 C         -5.3756111556        1.0329610702       -3.6432152572
 C         -5.9768837184        1.8105339395       -2.6679089250
 C         -5.5186835679        1.7593895432       -1.3620501600
 O         -6.1430419245        2.5649973454       -0.4481560350
 C         -5.7123648320        2.5140734068        0.8460609977
 C         -6.3655968773        3.3148074760        1.7680047757
 C         -5.9869282692        3.2913203422        3.1000237605
 C         -4.9607288393        2.4557008002        3.5097642569
 C         -4.3016384361        1.6536022912        2.5970859150
 C         -4.6549141958        1.6776717030        1.2484450023
 C         -1.7204493746        0.5454015679        1.0678765972
 C         -0.6680311206       -0.3064554520        1.3125766550
 H          2.2742972324       -3.2036560442       -0.9626275292
 H          4.1316815366       -1.6839987911       -0.4532000242
 H          3.4982563275        1.1745786741       -2.8662556658
 H          4.6565451283        2.6819616951       -4.4222581743
 H          6.4826287237        4.1411751429       -3.6138075909
 H          7.1504331027        4.0533720954       -1.2229504929
 H          6.7823245886        2.3671563198        3.0171326570
 H          5.7237881324        0.8843450239        4.7072412802
 H          3.8194041257       -0.5573262675        4.0363845159
 H          3.0072943334       -0.5509786702        1.7483034873
 H          1.5703591926        1.6853125013       -1.0647726205
 H         -0.3031831279        0.1514420922       -1.6004916233
 H         -0.9090363190       -4.9823415212       -2.4137745080
 H         -0.4584615798       -7.1499640605       -1.3017584901
 H          0.5316183578       -7.1979430289        0.9545513614
 H          0.9588076030       -5.0803595403        2.1678086117
 H         -2.2445451827       -3.2687921635        0.7972978649
 H         -4.1180294350       -1.7452125051        0.3649373796
 H         -3.0145529403       -0.4960247301       -1.7753048994
 H         -3.8273275844       -0.3910618228       -4.0607725020
 H         -5.7377826346        1.0747284359       -4.6583034586
 H         -6.8019660951        2.4662381797       -2.8958473313
 H         -7.1696237269        3.9438904843        1.4213435810
 H         -6.4993402243        3.9174975004        3.8128683169
 H         -4.6710580042        2.4227614608        4.5484482015
 H         -3.5117274919        0.9946529998        2.9204590961
 H         -1.5926374821        1.6158634918        1.1476213712
 H          0.2970583207        0.0768926657        1.6060744375
  78
  -130.570280890000       5.489752633179494E-002 !
 O         -1.1367962586       -2.8112855005       -2.1277583186
 C         -0.2273033089       -2.9824435128       -1.3136180100
 C          0.8825921538       -2.0292640213       -1.1659859364
 C          2.1655642540       -2.4283452010       -0.7605702600
 C          3.1575880736       -1.4990322544       -0.5761938414
 C          2.8993029554       -0.1456803764       -0.8108886633
 N          3.8937106561        0.8185076534       -0.5071957494
 C          4.5036087618        1.5488868390       -1.5097289808
 C          4.2273328454        1.3284066020       -2.8586171569
 C          4.8531014062        2.0801757151       -3.8352027333
 C          5.7690516478        3.0604714527       -3.4893704573
 C          6.0731610365        3.2793992014       -2.1560387947
 C          5.4536401086        2.5294934511       -1.1702296749
 O          5.8082798551        2.7752899978        0.1246457508
 C          5.2215267114        2.0194000359        1.1032383621
 C          5.6076899429        2.2665209593        2.4100640368
 C          5.0360454884        1.5500575222        3.4478881064
 C          4.0723178690        0.5925801269        3.1740716500
 C          3.6804718610        0.3357314172        1.8734857267
 C          4.2566408119        1.0373536085        0.8143504954
 C          1.6637446337        0.2524301550       -1.3169723710
 C          0.6759775948       -0.6835848513       -1.5121802055
 C         -0.1652581056       -4.1484275040       -0.4110147366
 C         -0.4578520861       -5.4352517940       -0.8553943800
 C         -0.2616983818       -6.5133480242       -0.0166084424
 C          0.2278716002       -6.3199078996        1.2727479631
 C          0.4737116460       -5.0448626187        1.7412573660
 C          0.2321097444       -3.9459254016        0.9221878600
 C          0.3544169773       -2.5633936430        1.4289157133
 O          1.3327032538       -2.1861830909        2.0881088193
 C         -0.7618005803       -1.6651306896        1.1223910440
 C         -2.0521270138       -2.1199518206        0.8088851973
 C         -3.0685992728       -1.2315843365        0.5589245252
 C         -2.8318544455        0.1445433707        0.6304453330
 N         -3.8824107073        1.0569418633        0.3498993251
 C         -3.8315882859        1.8562188210       -0.7807255222
 C         -2.7703683677        1.7979072404       -1.6817714621
 C         -2.7489466373        2.6137553838       -2.7974335446
 C         -3.7862578138        3.4988409078       -3.0406850798
 C         -4.8601693725        3.5565522617       -2.1679803047
 C         -4.8906166901        2.7411777149       -1.0492445568
 O         -5.9875768225        2.8292469239       -0.2381141267
 C         -6.0290253793        2.0241862447        0.8656148988
 C         -7.1451203503        2.1193249493        1.6794450005
 C         -7.2363477365        1.3483680473        2.8264924108
 C         -6.2005657550        0.4933330674        3.1643447670
 C         -5.0829408752        0.3904662594        2.3568574046
 C         -4.9837276652        1.1393283918        1.1854508025
 C         -1.5688448441        0.6134066379        0.9834634129
 C         -0.5521398879       -0.2778386990        1.2308867383
 H          2.3697303695       -3.4715647720       -0.5732875837
 H          4.1388043112       -1.8007056895       -0.2410906379
 H          3.5234649375        0.5582394861       -3.1307342400
 H          4.6244839488        1.8941650246       -4.8729733877
 H          6.2543741333        3.6481208277       -4.2522042136
 H          6.7923308508        4.0247821090       -1.8569321584
 H          6.3521735019        3.0257496960        2.5891923119
 H          5.3412373779        1.7453657497        4.4637418953
 H          3.6141893449        0.0333823279        3.9741277353
 H          2.9322354986       -0.4189372361        1.6872191181
 H          1.4846461007        1.2979082494       -1.5259232733
 H         -0.2914473470       -0.4036950588       -1.8995955050
 H         -0.8046958004       -5.5702808799       -1.8693268737
 H         -0.4709071161       -7.5136724124       -0.3667470847
 H          0.3987928450       -7.1715229783        1.9151295663
 H          0.8213793077       -4.8784751421        2.7502827670
 H         -2.2529243768       -3.1792946918        0.7611546251
 H         -4.0549675946       -1.5865178157        0.2989112855
 H         -1.9696300637        1.0994688217       -1.5024844310
 H         -1.9176034280        2.5509161801       -3.4821384908
 H         -3.7689278502        4.1361709843       -3.9103740825
 H         -5.6900346622        4.2235452473       -2.3380443552
 H         -7.9276241225        2.8052628914        1.3973231356
 H         -8.1097055210        1.4244668277        3.4543057841
 H         -6.2579153114       -0.0987057799        4.0643279521
 H         -4.2745800002       -0.2690232841        2.6292908232
 H         -1.3995445094        1.6781401391        1.0627758751
 H          0.4280423022        0.0702625601        1.5182304243
  78
  -130.568480030000       8.164598301118271E-003 !
 O          3.2873080137       -5.3092785316       -0.2953580423
 C          2.2229268615       -4.7132891882       -0.3618436411
 C          2.1610446334       -3.2258288558       -0.3330966365
 C          2.9429135845       -2.5016660599        0.5692646353
 C          2.9498621798       -1.1217186148        0.5391098772
 C          2.2012480918       -0.4421101837       -0.4165589117
 N          2.2212649492        0.9771703282       -0.4972114920
 C          2.7502459000        1.5898628270       -1.6247434749
 C          3.4568353430        0.8766373502       -2.5908959702
 C          3.9710540474        1.5174883245       -3.7036625742
 C          3.7987679492        2.8808453696       -3.8721444212
 C          3.1183072739        3.6103166399       -2.9111582725
 C          2.6016967951        2.9766750050       -1.7940787561
 O          1.9471247415        3.7541629421       -0.8797066880
 C          1.5030339875        3.1502262997        0.2617274486
 C          0.8962469611        3.9617338882        1.2046609693
 C          0.4422736184        3.4224616237        2.3965363175
 C          0.5941598218        2.0681822459        2.6345828409
 C          1.1718080485        1.2430465143        1.6850347708
 C          1.6391330376        1.7676813258        0.4835820397
 C          1.4484213116       -1.1612228546       -1.3460120366
 C          1.4231706534       -2.5368011272       -1.2973176185
 C          0.9238290161       -5.3711107306       -0.5695633319
 C          0.8386198451       -6.5133177500       -1.3671731345
 C         -0.3909399252       -7.0502631877       -1.6783868199
 C         -1.5539340062       -6.4611662813       -1.1855285019
 C         -1.4818483667       -5.3640155278       -0.3519951950
 C         -0.2435144461       -4.8191381837       -0.0140251976
 C         -0.1329500023       -3.7978103643        1.0511835390
 O          0.6224789887       -3.9866884323        2.0248701210
 C         -0.9262632541       -2.5912349047        0.9460907825
 C         -1.5977424440       -2.1835873230       -0.2224352798
 C         -2.1479732953       -0.9268784503       -0.3130400469
 C         -2.0370287371       -0.0261359082        0.7504695997
 N         -2.4569253735        1.3201604934        0.6321608352
 C         -1.8794671360        2.1703259498       -0.3021540647
 C         -1.0319626699        1.7152603426       -1.3107634651
 C         -0.5219041955        2.5840206190       -2.2580604300
 C         -0.8087659846        3.9363046752       -2.1972453297
 C         -1.6063476016        4.4180666424       -1.1731926487
 C         -2.1404382054        3.5500697167       -0.2355904648
 O         -2.9067801657        4.1000501881        0.7523751147
 C         -3.5344216414        3.2458003209        1.6154758924
 C         -4.3920264796        3.8014853535        2.5493352653
 C         -5.0822154505        2.9858984242        3.4311100019
 C         -4.9276913358        1.6115085639        3.3595163262
 C         -4.0692553247        1.0495499574        2.4330226821
 C         -3.3378848011        1.8558401455        1.5617350417
 C         -1.4552659577       -0.4539763697        1.9513570181
 C         -0.9098207074       -1.7041067632        2.0433644227
 H          3.5292035381       -3.0398246165        1.2967037645
 H          3.5544851405       -0.5631036961        1.2388839444
 H          3.6056625690       -0.1832467720       -2.4604263294
 H          4.5129220319        0.9439876827       -4.4392080878
 H          4.1972766516        3.3795067730       -4.7411493946
 H          2.9769280309        4.6748316388       -3.0058853089
 H          0.7979005589        5.0126264229        0.9862479625
 H         -0.0224830168        4.0600895328        3.1319083566
 H          0.2662240702        1.6458463076        3.5716994205
 H          1.2588648570        0.1852016662        1.8704569595
 H          0.9016722576       -0.6328515561       -2.1134621626
 H          0.8455695615       -3.0888538699       -2.0242770112
 H          1.7534994324       -6.9426075797       -1.7482458710
 H         -0.4567673791       -7.9264546794       -2.3063009789
 H         -2.5170440152       -6.8839235034       -1.4326339040
 H         -2.3812135896       -4.9496224926        0.0814053550
 H         -1.6688931021       -2.8560797591       -1.0632745100
 H         -2.6710593703       -0.6265892736       -1.2102522539
 H         -0.7773334279        0.6696073590       -1.3460918189
 H          0.1123505923        2.1998725892       -3.0433023908
 H         -0.4069067641        4.6144839521       -2.9324352688
 H         -1.8313529469        5.4683442600       -1.0815877282
 H         -4.5076346388        4.8732696179        2.5647599667
 H         -5.7463168106        3.4247078201        4.1584355426
 H         -5.4797547470        0.9680805117        4.0265147535
 H         -3.9624847692       -0.0217031282        2.3722919539
 H         -1.4247613830        0.2248202063        2.7896980943
 H         -0.4280572656       -2.0382614188        2.9496056408
