  43
  -64.8658801461000       0.577895118245793      !
 C         -2.3910076811        3.6140714758        0.0873460068
 C         -1.0080147107        3.6695137583        0.1372831987
 C         -0.2744942738        2.4962359858        0.1244047147
 C         -0.9000180683        1.2607999400        0.0640068417
 C         -2.2950307986        1.2088138826        0.0169221651
 C         -3.0312562596        2.3928560802        0.0287930207
 N         -2.9441241657       -0.0033716985       -0.0429214677
 C         -2.2917229516       -1.2135740933        0.0194714867
 C         -3.0244447197       -2.3997259301        0.0357283280
 C         -2.3804742781       -3.6190415461        0.0944332547
 C         -0.9971479194       -3.6704403448        0.1394502561
 C         -0.2671088221       -2.4950459991        0.1239485704
 C         -0.8964587651       -1.2615277402        0.0645930864
 C         -0.0635044499        0.0007476849        0.0297553351
 C          0.9586682250        0.0021164100        1.1484979992
 C          0.7336937478       -0.0003293024        2.5071554758
 C          1.8292128122        0.0012973287        3.3603840667
 C          3.1210424750        0.0055932194        2.8566734986
 C          3.3519751670        0.0074736137        1.4902022715
 C          2.2630990007        0.0054585716        0.6343791656
 C          2.1863077383        0.0039618124       -0.8188110139
 C          3.1788628607        0.0027443393       -1.7846739750
 C          2.8051135494       -0.0018419290       -3.1190826603
 C          1.4674235188       -0.0039749086       -3.4839006615
 C          0.4680469489       -0.0021838335       -2.5199225678
 C          0.8353851188        0.0011944737       -1.1927771784
 H         -2.9729267662        4.5237503466        0.0947079943
 H         -0.5025368434        4.6217586615        0.1844782958
 H          0.8046009133        2.5352396594        0.1608972660
 H         -4.1107139960        2.3415584473       -0.0097768634
 H         -3.9524337459       -0.0047174312       -0.0543822399
 H         -4.1042124844       -2.3515789589        0.0019090545
 H         -2.9596061603       -4.5303866746        0.1060580159
 H         -0.4887589617       -4.6212179770        0.1848062914
 H          0.8122624371       -2.5306591985        0.1561810323
 H         -0.2729259301       -0.0038135205        2.8996594717
 H          1.6734902867       -0.0006230797        4.4293036558
 H          3.9583631679        0.0078623407        3.5394732619
 H          4.3600431563        0.0103944360        1.1024588495
 H          4.2222542889        0.0039740822       -1.5055666859
 H          3.5657611493       -0.0045850705       -3.8864743759
 H          1.1999042612       -0.0080429564       -4.5304419488
 H         -0.5743550783       -0.0039385561       -2.8042544243
  43
  -64.8655832834000       0.422104881754207      !
 C         -2.4112420516        3.6067789948        0.1073186618
 C         -1.0644866456        3.6658174061       -0.2096106931
 C         -0.3243704432        2.4983979281       -0.2794522406
 C         -0.9091878687        1.2649063110       -0.0406971864
 C         -2.2692438392        1.2091359208        0.2740999724
 C         -3.0114679168        2.3868575139        0.3453209125
 N         -2.8761134127       -0.0033439340        0.5171281607
 C         -2.2575795579       -1.2102172208        0.2756493022
 C         -2.9878078313       -2.3953115460        0.3495565212
 C         -2.3759348167       -3.6093652080        0.1114346262
 C         -1.0293696638       -3.6552592621       -0.2087462008
 C         -0.3010561787       -2.4807167077       -0.2803162199
 C         -0.8976110198       -1.2529686155       -0.0407259929
 C         -0.0649682307        0.0103084207       -0.0711320940
 C          0.9018323082        0.0086615893        1.1001596519
 C          0.6096939923        0.0130200094        2.4458276550
 C          1.6618551708        0.0032149867        3.3516409385
 C          2.9766698857       -0.0108742949        2.9116860728
 C          3.2742721447       -0.0140804562        1.5583266813
 C          2.2288692541       -0.0039755044        0.6499983520
 C          2.2230925248       -0.0049843031       -0.8050326673
 C          3.2618456245       -0.0185388046       -1.7208365720
 C          2.9543945844       -0.0180214947       -3.0722927538
 C          1.6364043790       -0.0030766605       -3.5023649416
 C          0.5906579906        0.0100781705       -2.5886872818
 C          0.8912669206        0.0083379910       -1.2445574057
 H         -2.9964985354        4.5123012393        0.1679671493
 H         -0.5906926297        4.6172052794       -0.3970202895
 H          0.7277363952        2.5415247193       -0.5209044929
 H         -4.0634481391        2.3321217591        0.5898841069
 H         -3.8688855392       -0.0083418377        0.6957628457
 H         -4.0395545532       -2.3509409168        0.5969304426
 H         -2.9517375649       -4.5207486214        0.1742822262
 H         -0.5465940679       -4.6017339406       -0.3975716217
 H          0.7510978619       -2.5140489146       -0.5228914025
 H         -0.4147961217        0.0232143748        2.7886960286
 H          1.4539059675        0.0070091696        4.4117013457
 H          3.7793512251       -0.0188676132        3.6348549582
 H          4.3002557427       -0.0256274717        1.2207489410
 H          4.2901173672       -0.0305965299       -1.3906513558
 H          3.7521504977       -0.0304264208       -3.8008901950
 H          1.4204408681       -0.0028078752       -4.5607353948
 H         -0.4363235894        0.0204117285       -2.9241077634
