  53
  -91.1817960802000       0.206538788910383      !
 O          4.0499515397       -1.5354532379       -1.6082133072
 C          3.2351077806       -0.8761349355       -0.9698210001
 C          1.7976275989       -1.0106526172       -1.1397566624
 C          1.2970570008       -1.8927127642       -2.1161391922
 C         -0.0574712306       -2.0118329634       -2.3059228417
 C         -0.9547534949       -1.2900778171       -1.5185995354
 C         -0.4946307262       -0.4299063742       -0.5141090946
 C         -1.3545218459        0.3496103348        0.3088904896
 N         -2.7510955707        0.2088823434        0.2227566377
 C         -3.3673512446       -0.9890069032        0.5511881947
 C         -2.6452556778       -2.0924672340        1.0127405050
 C         -3.2913380895       -3.2718015888        1.3217704731
 C         -4.6700636487       -3.3779629767        1.1917667321
 C         -5.4084052408       -2.2854882091        0.7773181329
 C         -4.7682477579       -1.0938084587        0.4666986103
 O         -5.5501706067       -0.0395362749        0.1075570289
 C         -4.9403815534        1.1421450911       -0.1798748746
 C         -5.7523164322        2.2103118537       -0.5319552018
 C         -5.1868357291        3.4254659902       -0.8715726366
 C         -3.8052003094        3.5653357280       -0.8864347984
 C         -2.9886413279        2.5092090000       -0.5372440032
 C         -3.5393582881        1.2854988343       -0.1467304180
 C         -0.8307454072        1.2791474911        1.2310804839
 C          0.5173193172        1.4183775655        1.3901137143
 C          1.4114791543        0.6425472896        0.6117288862
 C          0.9103331833       -0.2698412392       -0.3371768650
 C          2.8374423365        0.8177752356        0.7955292940
 O          3.3206474387        1.6202173353        1.5911041128
 N          3.6580242420        0.0311747339       -0.0067597234
 C          5.0683483546        0.1791104966        0.1683816566
 C          5.6540785717       -0.1822288818        1.3719881539
 C          7.0193734236       -0.0365639172        1.5390263086
 C          7.7986013697        0.4580029923        0.5069763292
 C          7.2096198652        0.8137277148       -0.6943859775
 C          5.8434662311        0.6808670696       -0.8658569364
 H          2.0067286209       -2.4529451526       -2.7030829736
 H         -0.4425531197       -2.6781587524       -3.0632912884
 H         -2.0146109453       -1.4060515346       -1.6906039696
 H         -1.5771338970       -2.0117155648        1.1271538101
 H         -2.7142017014       -4.1132113056        1.6711913154
 H         -5.1692493409       -4.3039930741        1.4282148132
 H         -6.4823030539       -2.3253657408        0.6921000826
 H         -6.8199014674        2.0603357174       -0.5368890292
 H         -5.8206609657        4.2548505979       -1.1418120783
 H         -3.3593242368        4.5021677556       -1.1810810714
 H         -1.9165496298        2.6156986227       -0.5719167136
 H         -1.5200994034        1.8377726646        1.8477783159
 H          0.9391623500        2.0990510937        2.1112192853
 H          5.0389674724       -0.5674339658        2.1705029746
 H          7.4755023321       -0.3149165726        2.4775505164
 H          8.8648524514        0.5671247655        0.6394658174
 H          7.8143514374        1.1997237306       -1.5014628817
 H          5.3757880330        0.9555169753       -1.7988031367
  53
  -91.1817119424000       0.188944637446448      !
 O          4.0673240739       -0.5224482203       -2.1857555017
 C          3.2440204903       -0.3596352508       -1.2900909909
 C          1.8104542876       -0.5040344957       -1.4838712627
 C          1.3143329953       -0.8675788030       -2.7507394935
 C         -0.0380429443       -0.9995170566       -2.9495080834
 C         -0.9395071952       -0.7520915209       -1.9140026833
 C         -0.4835640058       -0.3663097756       -0.6471507155
 C         -1.3476942385       -0.1208775487        0.4539612508
 N         -2.7444645880       -0.0797758519        0.2850207952
 C         -3.5491809634       -0.9692274134        0.9738777436
 C         -3.0149602173       -2.0540501905        1.6746685836
 C         -3.8427003011       -2.9200469561        2.3588641621
 C         -5.2191055068       -2.7318479811        2.3555857313
 C         -5.7716143475       -1.6871337242        1.6375514489
 C         -4.9488515315       -0.8152037269        0.9401335565
 O         -5.5440067263        0.1745584901        0.2214557713
 C         -4.7475113754        1.0160412652       -0.4930384409
 C         -5.3752444951        2.0117550802       -1.2288877252
 C         -4.6204160890        2.9214827228       -1.9448276793
 C         -3.2340432120        2.8495337246       -1.9081417702
 C         -2.6001042832        1.8662932602       -1.1760789310
 C         -3.3435510244        0.9163339430       -0.4720655838
 C         -0.8307737337        0.1207201219        1.7436359891
 C          0.5156615946        0.2183165727        1.9440163472
 C          1.4126819859        0.0478190251        0.8611691206
 C          0.9193508051       -0.2655658759       -0.4210485584
 C          2.8339539680        0.2061511025        1.0886855078
 O          3.3195414655        0.4903970664        2.1816666550
 N          3.6520656988        0.0183413771       -0.0187095630
 C          5.0501823403        0.2591254118        0.1690608362
 C          5.9410557375       -0.7989449993        0.2425087054
 C          7.2899284982       -0.5438432956        0.4173428536
 C          7.7451650910        0.7591857981        0.5226333378
 C          6.8500054302        1.8130490636        0.4513314869
 C          5.5012846932        1.5661610141        0.2720394226
 H          2.0259144263       -1.0369281937       -3.5425892281
 H         -0.4176894384       -1.2860994530       -3.9188744182
 H         -1.9985608229       -0.8606681560       -2.0965671996
 H         -1.9478847660       -2.2091057502        1.6628442275
 H         -3.4119241054       -3.7525825181        2.8923454774
 H         -5.8612946280       -3.4082119273        2.8966705867
 H         -6.8372885960       -1.5284790240        1.5963424252
 H         -6.4525213828        2.0526560656       -1.2160251832
 H         -5.1103260431        3.6915805632       -2.5189251538
 H         -2.6399541177        3.5690408055       -2.4491283301
 H         -1.5243918125        1.8272124676       -1.1395102696
 H         -1.5241650817        0.2913048072        2.5545980550
 H          0.9322058249        0.4475212391        2.9110605311
 H          5.5768372567       -1.8113668614        0.1571796106
 H          7.9868177673       -1.3669375036        0.4724828557
 H          8.7984358086        0.9544003435        0.6596179380
 H          7.2017141437        2.8309483179        0.5321478406
 H          4.7929945842        2.3792159386        0.2158457805
  53
  -91.1816694489000       0.180636666442960      !
 O          4.0399415435       -0.3943283346       -2.2273807002
 C          3.2289687929       -0.2180248015       -1.3234286680
 C          1.7906250533       -0.3049707701       -1.5168356318
 C          1.2831574477       -0.6151846189       -2.7931210239
 C         -0.0709826048       -0.7357471638       -2.9845321747
 C         -0.9623478084       -0.5294879587       -1.9312707668
 C         -0.4963813899       -0.1871586770       -0.6559413227
 C         -1.3487648457        0.0123381747        0.4650434703
 N         -2.7479568908       -0.0196637533        0.3226485676
 C         -3.4926702442       -0.9650389077        1.0068639279
 C         -2.8922776531       -1.9848220082        1.7504506576
 C         -3.6650191257       -2.9029550610        2.4314476154
 C         -5.0513039391       -2.8377259325        2.3781447395
 C         -5.6662501246       -1.8642877490        1.6125201376
 C         -4.8985519946       -0.9382584719        0.9216780925
 O         -5.5552671876       -0.0280046741        0.1531387211
 C         -4.8153472579        0.8883098275       -0.5287578658
 C         -5.5030137443        1.8166092819       -1.2980659978
 C         -4.8086568732        2.7996415091       -1.9778305490
 C         -3.4259684775        2.8713794014       -1.8678734951
 C         -2.7326957829        1.9520688615       -1.1073846497
 C         -3.4106949119        0.9253096180       -0.4456008226
 C         -0.8162799867        0.2493359674        1.7494285795
 C          0.5317422649        0.3461995695        1.9370541121
 C          1.4182133877        0.1761885223        0.8451294914
 C          0.9092957458       -0.0941243192       -0.4403249712
 C          2.8446618011        0.2813221795        1.0738698085
 O          3.3336047659        0.5437451094        2.1704345043
 N          3.6584058300        0.0782393834       -0.0358882034
 C          5.0692449200        0.1757422214        0.1713869980
 C          5.7130230277       -0.7487359801        0.9795119052
 C          7.0771362612       -0.6457049781        1.1839763666
 C          7.7976345007        0.3684693134        0.5765203079
 C          7.1511996297        1.2856788798       -0.2344803809
 C          5.7856360845        1.1958765999       -0.4354452651
 H          1.9881372169       -0.7602261203       -3.5956017395
 H         -0.4608028845       -0.9844788680       -3.9602767470
 H         -2.0220040194       -0.6358156351       -2.1108608929
 H         -1.8166409060       -2.0506398356        1.7780508046
 H         -3.1814468765       -3.6797718685        3.0024319407
 H         -5.6507782680       -3.5542668626        2.9164626869
 H         -6.7393772836       -1.8030922707        1.5277366157
 H         -6.5783392492        1.7490884750       -1.3393626326
 H         -5.3448288265        3.5169679489       -2.5783405568
 H         -2.8822472733        3.6522152470       -2.3759441121
 H         -1.6613033632        2.0195613317       -1.0156292829
 H         -1.5011114533        0.4100642909        2.5696702353
 H          0.9584032761        0.5649346020        2.9021182623
 H          5.1429650097       -1.5359561375        1.4484188272
 H          7.5784045319       -1.3629620162        1.8169386052
 H          8.8633401141        0.4436085517        0.7346104463
 H          7.7105696470        2.0772526841       -0.7106799810
 H          5.2729866006        1.9062946450       -1.0655655552
  53
  -91.1809273499000       8.236843658845172E-002 !
 O          4.0198902620       -0.3509754439       -2.2426601446
 C          3.2160902630       -0.2440656698       -1.3217717760
 C          1.7801311913       -0.3780197680       -1.5002110704
 C          1.2617855668       -0.6171510038       -2.7873347689
 C         -0.0932077603       -0.7391894170       -2.9718504652
 C         -0.9748676115       -0.6041128050       -1.8989242377
 C         -0.4968146269       -0.3428825337       -0.6094743443
 C         -1.3420944520       -0.2046518785        0.5268467494
 N         -2.7366744778       -0.1236986174        0.3663618309
 C         -3.5779756666       -1.0465891960        0.9621794787
 C         -3.0898165710       -2.1432837892        1.6777864572
 C         -3.9596232594       -3.0367076944        2.2688492691
 C         -5.3333314655       -2.8704834637        2.1492442862
 C         -5.8379110250       -1.8181240468        1.4079376585
 C         -4.9724616505       -0.9145677399        0.8092495675
 O         -5.5247056664        0.0772404651        0.0594300609
 C         -4.6918549424        0.9944051112       -0.5036754166
 C         -5.2742628117        2.0270685810       -1.2256644594
 C         -4.4814943289        3.0135308993       -1.7812908712
 C         -3.1059811587        2.9831356126       -1.5919841795
 C         -2.5173930240        1.9585858746       -0.8797968550
 C         -3.2952301850        0.9274065770       -0.3469611295
 C         -0.7998797519       -0.0813398496        1.8227670680
 C          0.5509051755       -0.0054622286        2.0051510519
 C          1.4284452716       -0.0687793583        0.8940590757
 C          0.9094063305       -0.2564096608       -0.4019481091
 C          2.8523387111        0.0943440038        1.1075730876
 O          3.3458886898        0.3102539973        2.2119605580
 N          3.6522582639        0.0277894026       -0.0296413301
 C          5.0472676509        0.2854567602        0.1376668325
 C          5.6111832497        1.3844871690       -0.4943199523
 C          6.9596179376        1.6476089249       -0.3398076119
 C          7.7418290889        0.8252854285        0.4533762174
 C          7.1735475639       -0.2660404580        1.0878324245
 C          5.8273667340       -0.5437451147        0.9281270286
 H          1.9589555689       -0.7005335737       -3.6052745171
 H         -0.4913004069       -0.9303379776       -3.9571753607
 H         -2.0360555062       -0.7047405423       -2.0733332438
 H         -2.0241800046       -2.2878698264        1.7538757532
 H         -3.5627164678       -3.8744203275        2.8202456609
 H         -6.0088194708       -3.5692563679        2.6160892968
 H         -6.8979895324       -1.6769820140        1.2709982784
 H         -6.3473736407        2.0363833327       -1.3285158858
 H         -4.9353495551        3.8127764232       -2.3449803722
 H         -2.4856569969        3.7663147185       -1.9983007947
 H         -1.4514606276        1.9490977442       -0.7250965360
 H         -1.4759169409        0.0228270821        2.6591976085
 H          0.9849578043        0.1348104652        2.9814962825
 H          4.9927503239        2.0217386547       -1.1077636073
 H          7.3977261133        2.5013639515       -0.8353820780
 H          8.7937661408        1.0360739251        0.5771429116
 H          7.7815371845       -0.9092636249        1.7066260563
 H          5.3789721605       -1.3947640122        1.4164135603
  53
  -91.1809150076000       8.129965347410165E-002 !
 O          4.0604259443       -1.6087522244       -1.5146523251
 C          3.2420253580       -0.9585552783       -0.8714437902
 C          1.8058024061       -1.1333161473       -1.0128533388
 C          1.3123074445       -2.0201614477       -1.9882132956
 C         -0.0411360098       -2.1435982139       -2.1821234815
 C         -0.9431004794       -1.4225479949       -1.3996335264
 C         -0.4907108686       -0.5675225923       -0.3871759957
 C         -1.3528262560        0.2164855479        0.4297787150
 N         -2.7490878633        0.1539130126        0.2721684647
 C         -3.4516687994       -1.0135539026        0.5235844237
 C         -2.8236387053       -2.1689243929        0.9962017619
 C         -3.5526360049       -3.3184210801        1.2216643696
 C         -4.9230769987       -3.3423030842        0.9960706148
 C         -5.5712053742       -2.1978079282        0.5708007900
 C         -4.8474953633       -1.0356660685        0.3436157050
 O         -5.5440802722        0.0714710333       -0.0318983272
 C         -4.8508829897        1.2222112908       -0.2474602370
 C         -5.5765872686        2.3428847698       -0.6241087258
 C         -4.9230568973        3.5310170070       -0.8941272926
 C         -3.5380925609        3.5913313445       -0.8149081317
 C         -2.8070327388        2.4820833575       -0.4415690188
 C         -3.4494890731        1.2834636743       -0.1194818458
 C         -0.8310699793        1.1084520293        1.3897130077
 C          0.5156113938        1.2368601145        1.5653180368
 C          1.4124073033        0.4931108003        0.7592236276
 C          0.9139401642       -0.4079915585       -0.2015116755
 C          2.8356743375        0.7158944510        0.9088261232
 O          3.3063948652        1.5269746161        1.7027489733
 N          3.6614292898       -0.0140985052        0.0583017541
 C          5.0609473905        0.2612870311        0.1153328061
 C          5.7676294756        0.0659104287        1.2919329471
 C          7.1188759135        0.3607839685        1.3339043957
 C          7.7657214938        0.8362697320        0.2057806231
 C          7.0573503366        1.0224908867       -0.9692432692
 C          5.7038937698        0.7433755485       -1.0160037511
 H          2.0259256070       -2.5742348654       -2.5761705007
 H         -0.4220037975       -2.8102658531       -2.9413054398
 H         -2.0011559019       -1.5399164406       -1.5803695260
 H         -1.7623822443       -2.1507880886        1.1817938385
 H         -3.0478669393       -4.2018750000        1.5793426633
 H         -5.4868312862       -4.2456374990        1.1656819470
 H         -6.6373414868       -2.1744808290        0.4120812902
 H         -6.6481464229        2.2543927589       -0.7036133428
 H         -5.4899211329        4.4012445669       -1.1838846235
 H         -3.0211214054        4.5071543984       -1.0545049142
 H         -1.7309107950        2.5294293031       -0.4037145169
 H         -1.5239092576        1.6540084419        2.0142624540
 H          0.9346892714        1.8941211006        2.3093953626
 H          5.2576846724       -0.3042989998        2.1673480693
 H          7.6688333833        0.2138140241        2.2516178808
 H          8.8211698003        1.0623497183        0.2419542107
 H          7.5569647187        1.3934417040       -1.8518915507
 H          5.1429466815        0.8915638923       -1.9258964595
  53
  -91.1808558680000       7.636775366090728E-002 !
 O          4.0467885316       -0.2494041365       -2.2553863896
 C          3.2336885489       -0.0655034046       -1.3552816221
 C          1.7947366788       -0.0849477083       -1.5670610937
 C          1.2928585784       -0.3646464886       -2.8524307045
 C         -0.0603923295       -0.4794855327       -3.0513133030
 C         -0.9557047083       -0.2969809723       -1.9967868253
 C         -0.4973257627        0.0346393789       -0.7158228483
 C         -1.3507200142        0.2102949561        0.4092595821
 N         -2.7449173337        0.0597897599        0.2996841695
 C         -3.3820685142       -0.9282057997        1.0338252052
 C         -2.6733506753       -1.8640912431        1.7926409304
 C         -3.3412949949       -2.8197841027        2.5304253516
 C         -4.7284313769       -2.8804280366        2.5175560236
 C         -5.4481992960       -1.9972658991        1.7342037575
 C         -4.7858795932       -1.0332077187        0.9883388789
 O         -5.5429620970       -0.2174045065        0.2061619450
 C         -4.9085050661        0.7391516209       -0.5248267058
 C         -5.6983153780        1.5694042397       -1.3077626348
 C         -5.1162465239        2.5892385946       -2.0369092921
 C         -3.7450136284        2.7976409514       -1.9618886625
 C         -2.9506940414        1.9768553127       -1.1876843457
 C         -3.5122760909        0.9122536551       -0.4778760013
 C         -0.8196668895        0.4916154236        1.6864091377
 C          0.5261533760        0.6035911564        1.8752643242
 C          1.4151292528        0.3958334429        0.7922924964
 C          0.9086279989        0.1294606433       -0.4949573685
 C          2.8415511185        0.4231444298        1.0414763521
 O          3.3292387922        0.6546446379        2.1455739820
 N          3.6580201604        0.1540102870       -0.0512115057
 C          5.0607948904        0.0502998956        0.2033749632
 C          5.5287470177       -1.0016634673        0.9768619638
 C          6.8838337118       -1.1206073351        1.2243799589
 C          7.7703031621       -0.1988328777        0.6937481061
 C          7.2987873040        0.8473436129       -0.0805280803
 C          5.9431197013        0.9786219436       -0.3252946873
 H          2.0013611568       -0.5005566528       -3.6533542616
 H         -0.4469064149       -0.7091133035       -4.0330350178
 H         -2.0133091570       -0.4076712678       -2.1841102221
 H         -1.5959329585       -1.8366922269        1.7905259772
 H         -2.7733449431       -3.5275986640        3.1133687923
 H         -5.2458883830       -3.6260418566        3.0996123560
 H         -6.5240970878       -2.0367234332        1.6776498131
 H         -6.7624514222        1.3966433316       -1.3214910121
 H         -5.7313906208        3.2283005707       -2.6499249247
 H         -3.2906897344        3.6087524741       -2.5084577184
 H         -1.8891102892        2.1490618823       -1.1229609253
 H         -1.5077781027        0.6609312354        2.5022580549
 H          0.9502151898        0.8451454506        2.8359980386
 H          4.8289036727       -1.7157573031        1.3838133584
 H          7.2473407025       -1.9383655727        1.8288858225
 H          8.8288348507       -0.2965001779        0.8842609299
 H          7.9886494690        1.5669307123       -0.4955868874
 H          5.5673628689        1.7893588541       -0.9299072465
  53
  -91.1807205765000       6.618115582275959E-002 !
 O          4.0261493061       -0.4823455140       -2.2007504380
 C          3.2173602517       -0.3572882697       -1.2862691838
 C          1.7871348917       -0.5519514640       -1.4520743914
 C          1.2735576938       -0.8920424117       -2.7182596814
 C         -0.0794112418       -1.0477232217       -2.8939252344
 C         -0.9646636565       -0.8417495641       -1.8353727941
 C         -0.4902718178       -0.4847782990       -0.5678660894
 C         -1.3412414873       -0.2631022185        0.5502541271
 N         -2.7299635588       -0.1381736433        0.3645695631
 C         -3.6157894786       -0.9988753887        0.9860637375
 C         -3.1798822075       -2.0940438243        1.7366765510
 C         -4.0919341316       -2.9337246267        2.3427972746
 C         -5.4563659710       -2.7115594817        2.2066725594
 C         -5.9100604533       -1.6556396708        1.4378062945
 C         -5.0020428688       -0.8062592937        0.8230751978
 O         -5.5041249210        0.1940058781        0.0496027825
 C         -4.6259734813        1.0417595492       -0.5524898000
 C         -5.1566653918        2.0750346679       -1.3125859094
 C         -4.3156797397        2.9911789917       -1.9155880982
 C         -2.9422109792        2.8896273593       -1.7375725658
 C         -2.4051376600        1.8661642824       -0.9841116125
 C         -3.2339379000        0.9057999234       -0.3988886039
 C         -0.8070885971       -0.0722151965        1.8408334286
 C          0.5434686546        0.0130786957        2.0242003559
 C          1.4256351287       -0.1014818748        0.9207816112
 C          0.9139823101       -0.3742648779       -0.3631830400
 C          2.8455389022        0.1044281424        1.1225738403
 O          3.3395083446        0.3860530729        2.2119535291
 N          3.6417517896        0.0070192971       -0.0142842386
 C          5.0231628165        0.3457886571        0.1283073066
 C          5.8712661768       -0.4460856921        0.8852256367
 C          7.2008618425       -0.0865280039        1.0193645759
 C          7.6829025600        1.0513389204        0.3955225973
 C          6.8320761157        1.8372278435       -0.3630877100
 C          5.5004546626        1.4896372297       -0.4946990849
 H          1.9725666096       -1.0221391383       -3.5285218868
 H         -0.4729694264       -1.3169531324       -3.8626753690
 H         -2.0252607414       -0.9625801124       -2.0011806340
 H         -2.1213323420       -2.2794820378        1.8254700087
 H         -3.7362878931       -3.7732593417        2.9190283299
 H         -6.1649961578       -3.3689936515        2.6844408740
 H         -6.9622522021       -1.4705598380        1.2918254071
 H         -6.2285268600        2.1403797665       -1.4079377569
 H         -4.7295789273        3.7910833350       -2.5084148234
 H         -2.2823478947        3.6168922637       -2.1835960064
 H         -1.3400191670        1.8058570215       -0.8365195666
 H         -1.4870557638        0.0784903767        2.6669245635
 H          0.9731529157        0.2056838924        2.9935111935
 H          5.4869651070       -1.3306858162        1.3687717279
 H          7.8630680560       -0.7002301675        1.6117783698
 H          8.7218199761        1.3268577342        0.5004392292
 H          7.2037929908        2.7258740799       -0.8514574045
 H          4.8277278010        2.0952005057       -1.0831819627
  53
  -91.1806215630000       5.959789128063180E-002 !
 O          4.0447185658       -0.4005532329       -2.2168961496
 C          3.2273656728       -0.2257524290       -1.3174730532
 C          1.7894377038       -0.3156021941       -1.5105226568
 C          1.2812883409       -0.6452957291       -2.7813422530
 C         -0.0729721136       -0.7701264515       -2.9695955828
 C         -0.9630438021       -0.5488185896       -1.9184744069
 C         -0.4962888208       -0.1848750092       -0.6492661015
 C         -1.3487815893        0.0325331778        0.4683354090
 N         -2.7478884111       -0.0084707170        0.3260753117
 C         -3.4886449469       -0.9479645362        1.0224568371
 C         -2.8841318669       -1.9515561371        1.7844558213
 C         -3.6531810189       -2.8655688503        2.4751563993
 C         -5.0395866728       -2.8123463642        2.4134333733
 C         -5.6581685166       -1.8547559081        1.6309829183
 C         -4.8942419264       -0.9326265777        0.9309967461
 O         -5.5542971863       -0.0376549376        0.1473082982
 C         -4.8179665280        0.8724672586       -0.5466830836
 C         -5.5087326431        1.7839760136       -1.3330254802
 C         -4.8180564025        2.7588415638       -2.0279723936
 C         -3.4359377259        2.8395232877       -1.9167384274
 C         -2.7398651137        1.9378902711       -1.1379741288
 C         -3.4139202034        0.9191869899       -0.4598951205
 C         -0.8171517347        0.2952334959        1.7476152953
 C          0.5309117321        0.3981000073        1.9333903166
 C          1.4172756732        0.2098167311        0.8448480590
 C          0.9094099020       -0.0856205271       -0.4360969960
 C          2.8442013280        0.3124425391        1.0710936310
 O          3.3431097874        0.5747494909        2.1638256297
 N          3.6517616768        0.0871997643       -0.0352928176
 C          5.0670808259        0.1726513469        0.1721916415
 C          5.7779726736       -0.9609356962        0.5321214195
 C          7.1445157583       -0.8764232750        0.7300839286
 C          7.7965968695        0.3340978831        0.5694571601
 C          7.0815247750        1.4636826524        0.2100611567
 C          5.7146812391        1.3867311151        0.0104009967
 H          1.9857106960       -0.8020447666       -3.5820149547
 H         -0.4635658034       -1.0342646312       -3.9408991722
 H         -2.0227179945       -0.6579607586       -2.0958264513
 H         -1.8082113832       -2.0083604916        1.8186801794
 H         -3.1664834029       -3.6301871513        3.0598546657
 H         -5.6360931537       -3.5263438808        2.9582929418
 H         -6.7311621745       -1.8032336026        1.5399923645
 H         -6.5834321048        1.7095292187       -1.3760964369
 H         -5.3565448959        3.4624636196       -2.6424596009
 H         -2.8954270905        3.6147568534       -2.4364206872
 H         -1.6692296252        2.0128672793       -1.0448836710
 H         -1.5022280669        0.4694328629        2.5647835024
 H          0.9574273852        0.6344294032        2.8943433014
 H          5.2583528540       -1.8996045785        0.6542683325
 H          7.7001838010       -1.7587331370        1.0111405368
 H          8.8634797325        0.3971495398        0.7243291959
 H          7.5884123689        2.4089149500        0.0839304649
 H          5.1466420338        2.2609979992       -0.2703770713
  53
  -91.1800675561000       3.316094899477234E-002 !
 O          4.0383286678       -0.3275751098       -2.2565356425
 C          3.2247287016       -0.0937661692       -1.3678855881
 C          1.7877730443       -0.0743753988       -1.5905610080
 C          1.2823184681       -0.4085072365       -2.8612036279
 C         -0.0731793465       -0.4963859698       -3.0595506068
 C         -0.9654362353       -0.2400503783       -2.0181110622
 C         -0.5014989410        0.1408287774       -0.7531269063
 C         -1.3481469555        0.3677323401        0.3676312944
 N         -2.7357065862        0.1436188541        0.2893427975
 C         -3.2966873611       -0.8695999739        1.0507335354
 C         -2.5172107763       -1.7420487867        1.8151959482
 C         -3.1099239434       -2.7317779502        2.5722056103
 C         -4.4893851341       -2.8890728554        2.5738708179
 C         -5.2769708924       -2.0657793679        1.7904200150
 C         -4.6907448155       -1.0675012325        1.0260360139
 O         -5.5105114501       -0.3102386612        0.2475417163
 C         -4.9484535693        0.6685623002       -0.5130835105
 C         -5.7995487308        1.4347777973       -1.2966328406
 C         -5.2910638856        2.4699521202       -2.0587574576
 C         -3.9322249899        2.7559965794       -2.0204494205
 C         -3.0768384330        1.9995617387       -1.2455475578
 C         -3.5641220727        0.9250442246       -0.4972304516
 C         -0.8136339020        0.7299039827        1.6218688234
 C          0.5325581611        0.8551995502        1.7994926816
 C          1.4174489031        0.5666494739        0.7315875216
 C          0.9059950043        0.2273418242       -0.5360676187
 C          2.8418773458        0.5575393435        0.9911778456
 O          3.3253074904        0.8125854000        2.0915782258
 N          3.6518914640        0.1761868826       -0.0740110895
 C          5.0377706265       -0.0213831933        0.2088966492
 C          5.5683369036       -1.2990469715        0.1016226364
 C          6.9003672675       -1.5161286872        0.4014486751
 C          7.6983816642       -0.4644452905        0.8186766459
 C          7.1642990573        0.8083282150        0.9254093271
 C          5.8345700662        1.0361509676        0.6172469849
 H          1.9886410920       -0.6066787639       -3.6510394140
 H         -0.4632420790       -0.7643364085       -4.0301136325
 H         -2.0251475800       -0.3301406834       -2.2045552995
 H         -1.4444947402       -1.6397621629        1.8019590332
 H         -2.4881682468       -3.3902919200        3.1579608075
 H         -4.9476744865       -3.6627589157        3.1687786326
 H         -6.3483179016       -2.1789714246        1.7486062812
 H         -6.8519856056        1.2010421327       -1.2857733863
 H         -5.9544168361        3.0599641807       -2.6707255130
 H         -3.5365852796        3.5776978021       -2.5962018083
 H         -2.0241636757        2.2281754168       -1.2086685261
 H         -1.5000987676        0.9406894856        2.4293980292
 H          0.9606602036        1.1548669322        2.7418165199
 H          4.9354736873       -2.1132566434       -0.2176562378
 H          7.3118858986       -2.5111347928        0.3179381200
 H          8.7355614767       -0.6383693231        1.0638623742
 H          7.7853082518        1.6299295296        1.2501442758
 H          5.4100672171        2.0239913594        0.7033451649
  53
  -91.1797969615000       2.490406737858370E-002 !
 O          4.0807446002       -1.5477074802       -1.5556549898
 C          3.2564151890       -0.9934741088       -0.8354773456
 C          1.8284595757       -1.2622064998       -0.9098253711
 C          1.3497038705       -2.1790896833       -1.8652504579
 C         -0.0012619354       -2.3577647149       -2.0297992680
 C         -0.9162038466       -1.6468618856       -1.2521036109
 C         -0.4779406172       -0.7590445211       -0.2622888942
 C         -1.3487133925        0.0434569559        0.5260627467
 N         -2.7369318162        0.0643999690        0.2896416308
 C         -3.5477128161       -1.0265748688        0.5477624597
 C         -3.0394898050       -2.2205449792        1.0651829847
 C         -3.8790219903       -3.2873804722        1.3128873090
 C         -5.2420254032       -3.1870486180        1.0638295802
 C         -5.7705424620       -2.0028197320        0.5849349649
 C         -4.9355819086       -0.9236500690        0.3329871396
 O         -5.5163973272        0.2289228150       -0.0992866421
 C         -4.7122286625        1.2975011340       -0.3499492947
 C         -5.3156022599        2.4613146531       -0.8037723493
 C         -4.5431454268        3.5672925992       -1.1073519160
 C         -3.1618675265        3.5015655529       -0.9823534634
 C         -2.5522610921        2.3489990678       -0.5311489646
 C         -3.3161386557        1.2334638369       -0.1772227766
 C         -0.8413439755        0.9278733847        1.5008918164
 C          0.5017317041        1.0515206679        1.7019165266
 C          1.4080043894        0.3393289259        0.8787139374
 C          0.9247383373       -0.5691337074       -0.0828689952
 C          2.8247494486        0.6089513834        1.0034099923
 O          3.2943082107        1.3784766903        1.8386381415
 N          3.6521712530       -0.0358188196        0.0896223910
 C          5.0199964446        0.3765459111        0.0647760236
 C          6.0361538310       -0.5051352221        0.3950031092
 C          7.3518731008       -0.0786643223        0.3427618374
 C          7.6514752206        1.2212001683       -0.0269473368
 C          6.6318751669        2.0998828325       -0.3518181595
 C          5.3159723907        1.6787106458       -0.3126487260
 H          2.0722869442       -2.7101002772       -2.4635258701
 H         -0.3703742184       -3.0542014225       -2.7678266589
 H         -1.9723879098       -1.7971906462       -1.4189527282
 H         -1.9835254805       -2.2947083703        1.2683515557
 H         -3.4679548711       -4.2030764704        1.7075303211
 H         -5.8932147518       -4.0250160678        1.2547329152
 H         -6.8265941208       -1.8846151357        0.4026091643
 H         -6.3878724872        2.4715705213       -0.9151003001
 H         -5.0146835723        4.4713660181       -1.4578724413
 H         -2.5523250718        4.3514753167       -1.2459632587
 H         -1.4785262352        2.2975929038       -0.4555275045
 H         -1.5451526670        1.4777479162        2.1092342292
 H          0.9104464268        1.6979760313        2.4609097006
 H          5.7949216952       -1.5168798089        0.6808440053
 H          8.1460005835       -0.7654201119        0.5953459539
 H          8.6793333070        1.5505502201       -0.0629515455
 H          6.8602600281        3.1148717609       -0.6417809671
 H          4.5133631870        2.3545164383       -0.5667989465
