  44
        -64.76695290
 C         -5.6796634617       -0.0006596040        0.0105588375
 C         -4.9844398626       -0.7024950987       -0.9619503130
 C         -3.6037668320       -0.7071333849       -0.9653758384
 C         -2.8831977431        0.0022079430        0.0010588122
 C         -1.4237555317        0.0012504836       -0.0019001422
 C         -0.7138199159       -1.2378019147        0.0296885450
 C         -1.3753477361       -2.4629839442        0.1476536401
 C         -0.6846086400       -3.6727906358        0.0850068230
 C          0.6797961600       -3.6732631349       -0.1015915683
 C          1.3723035546       -2.4640742963       -0.1579802894
 C          0.7122226907       -1.2385644999       -0.0362008800
 C          1.4239276933       -0.0005922468       -0.0011719591
 C          2.8832633309       -0.0016707857        0.0018041246
 C          3.5986333867       -0.7132265120        0.9705041747
 C          4.9792952114       -0.7068274660        0.9757932498
 C          5.6797417218       -0.0013358969        0.0096397473
 C          4.9845812246        0.7034163619       -0.9608135362
 C          3.6039118013        0.7092751052       -0.9633804715
 C          0.7139083390        1.2384187932        0.0303150714
 C          1.3751736969        2.4636413298        0.1488423440
 C          0.6842651624        3.6733440916        0.0857490599
 C         -0.6800634261        3.6738102765       -0.1017970563
 C         -1.3723760351        2.4646178957       -0.1583436165
 C         -0.7120928992        1.2391904172       -0.0363067110
 C         -3.5985976948        0.7110826759        0.9716364083
 C         -4.9792717509        0.7033083258        0.9777983328
 H         -6.7592971660       -0.0019662406        0.0142804222
 H         -5.5234484306       -1.2465311912       -1.7239617692
 H         -3.0652090233       -1.2363227521       -1.7382199821
 H         -2.4441001643       -2.4773361288        0.2943827609
 H         -1.2292313784       -4.6013474977        0.1687686473
 H          1.2229628561       -4.6021543810       -0.1905219658
 H          2.4411340582       -2.4790992510       -0.3041647713
 H          3.0558593130       -1.2452737163        1.7384551601
 H          5.5143191719       -1.2525899374        1.7394605515
 H          6.7593605602       -0.0006901534        0.0130300677
 H          5.5236861107        1.2493385598       -1.7214839083
 H          3.0654117327        1.2408275726       -1.7346729139
 H          2.4437667608        2.4781434213        0.2969364696
 H          1.2287838739        4.6019283772        0.1700634989
 H         -1.2230849588        4.6027394601       -0.1913838752
 H         -2.4411195068        2.4791931944       -0.3050337264
 H         -3.0558828821        1.2421771838        1.7402911452
 H         -5.5141783764        1.2472442391        1.7428686991
