  44
        -64.76695290
 C         -5.6796634617       -0.0006596040        0.0105588375
 C         -4.9844398626       -0.7024950987       -0.9619503130
 C         -3.6037668320       -0.7071333849       -0.9653758384
 C         -2.8831977431        0.0022079430        0.0010588122
 C         -1.4237555317        0.0012504836       -0.0019001422
 C         -0.7138199159       -1.2378019147        0.0296885450
 C         -1.3753477361       -2.4629839442        0.1476536401
 C         -0.6846086400       -3.6727906358        0.0850068230
 C          0.6797961600       -3.6732631349       -0.1015915683
 C          1.3723035546       -2.4640742963       -0.1579802894
 C          0.7122226907       -1.2385644999       -0.0362008800
 C          1.4239276933       -0.0005922468       -0.0011719591
 C          2.8832633309       -0.0016707857        0.0018041246
 C          3.5986333867       -0.7132265120        0.9705041747
 C          4.9792952114       -0.7068274660        0.9757932498
 C          5.6797417218       -0.0013358969        0.0096397473
 C          4.9845812246        0.7034163619       -0.9608135362
 C          3.6039118013        0.7092751052       -0.9633804715
 C          0.7139083390        1.2384187932        0.0303150714
 C          1.3751736969        2.4636413298        0.1488423440
 C          0.6842651624        3.6733440916        0.0857490599
 C         -0.6800634261        3.6738102765       -0.1017970563
 C         -1.3723760351        2.4646178957       -0.1583436165
 C         -0.7120928992        1.2391904172       -0.0363067110
 C         -3.5985976948        0.7110826759        0.9716364083
 C         -4.9792717509        0.7033083258        0.9777983328
 H         -6.7592971660       -0.0019662406        0.0142804222
 H         -5.5234484306       -1.2465311912       -1.7239617692
 H         -3.0652090233       -1.2363227521       -1.7382199821
 H         -2.4441001643       -2.4773361288        0.2943827609
 H         -1.2292313784       -4.6013474977        0.1687686473
 H          1.2229628561       -4.6021543810       -0.1905219658
 H          2.4411340582       -2.4790992510       -0.3041647713
 H          3.0558593130       -1.2452737163        1.7384551601
 H          5.5143191719       -1.2525899374        1.7394605515
 H          6.7593605602       -0.0006901534        0.0130300677
 H          5.5236861107        1.2493385598       -1.7214839083
 H          3.0654117327        1.2408275726       -1.7346729139
 H          2.4437667608        2.4781434213        0.2969364696
 H          1.2287838739        4.6019283772        0.1700634989
 H         -1.2230849588        4.6027394601       -0.1913838752
 H         -2.4411195068        2.4791931944       -0.3050337264
 H         -3.0558828821        1.2421771838        1.7402911452
 H         -5.5141783764        1.2472442391        1.7428686991
  44
        -64.76670186
 C         -5.6794206102       -0.0017497414        0.0089834831
 C         -4.9787275371       -0.6599357638        1.0076164380
 C         -3.5977803098       -0.6648215923        1.0028042396
 C         -2.8842044023        0.0015150817        0.0019488121
 C         -1.4235487687        0.0023226254       -0.0012907515
 C         -0.7139471101       -1.2371466804       -0.0384367513
 C         -1.3821419832       -2.4584106042       -0.1614241478
 C         -0.6895080471       -3.6660980530       -0.2398298755
 C          0.6871854470       -3.6664096426       -0.2422571108
 C          1.3805006125       -2.4589652093       -0.1655784590
 C          0.7133134712       -1.2375400997       -0.0397295723
 C          1.4238452885        0.0015791899       -0.0016812531
 C          2.8841872756       -0.0004293605        0.0021669067
 C          3.6058416031        0.6699005650       -0.9902814010
 C          4.9866761378        0.6597696703       -0.9881419823
 C          5.6798303774       -0.0085059961        0.0091419355
 C          4.9778487533       -0.6726768128        1.0029634052
 C          3.5970335641       -0.6749104260        0.9983307216
 C          0.7140435317        1.2410365591        0.0327555112
 C          1.3817787469        2.4627155073        0.1539738708
 C          0.6889381527        3.6707157287        0.2265001911
 C         -0.6877454288        3.6710078267        0.2252687693
 C         -1.3808998914        2.4633602656        0.1519127538
 C         -0.7133024666        1.2412613970        0.0321611807
 C         -3.6044028031        0.6659398884       -0.9953398449
 C         -4.9852943878        0.6579807282       -0.9932277298
 H         -6.7591150806       -0.0034171922        0.0115574697
 H         -5.5133864630       -1.1703507577        1.7955860725
 H         -3.0542974688       -1.1614790720        1.7936201963
 H         -2.4595093366       -2.4709569263       -0.2139112763
 H         -1.2407929077       -4.5914299887       -0.3153338618
 H          1.2377077513       -4.5920019090       -0.3197096449
 H          2.4577268555       -2.4717742114       -0.2212753433
 H          3.0682482714        1.1727199582       -1.7813689445
 H          5.5272559553        1.1734578128       -1.7699521001
 H          6.7594833920       -0.0117082599        0.0119546188
 H          5.5116310723       -1.1893751496        1.7875173457
 H          3.0526667155       -1.1758877860        1.7858765098
 H          2.4590183787        2.4754689942        0.2091860818
 H          1.2399858176        4.5963598784        0.2999172822
 H         -1.2387076508        4.5968072749        0.2974997188
 H         -2.4581977468        2.4760533551        0.2054180571
 H         -3.0658927950        1.1637518908       -1.7888661741
 H         -5.5250070246        1.1658277275       -1.7794860171
  44
        -64.76660199
 C         -5.6738356654        0.0273668951        0.1610533468
 C         -4.9201553433        0.6827540140        1.1224518083
 C         -3.5415571766        0.6782793031        1.0483229922
 C         -2.8825262645        0.0047141224        0.0150688499
 C         -1.4231663574       -0.0064563842       -0.0449644697
 C         -0.7157060651       -1.2474435496       -0.0296249255
 C         -1.3843845042       -2.4698331173        0.0770903029
 C         -0.6929256028       -3.6797554559        0.1314250071
 C          0.6836020047       -3.6816156741        0.1298871913
 C          1.3781197090       -2.4735304002        0.0744319553
 C          0.7123637636       -1.2493078349       -0.0302720067
 C          1.4229531709       -0.0101379282       -0.0449205762
 C          2.8824839265       -0.0026901164        0.0148874600
 C          3.6534667414       -0.6589607015       -0.9487052171
 C          5.0328162040       -0.6453425006       -0.8774518375
 C          5.6737332031        0.0120327243        0.1609031031
 C          4.9218054500        0.6658659495        1.1247516660
 C          3.5431700765        0.6657536761        1.0503205164
 C          0.7148309043        1.2292653188       -0.1004055518
 C          1.3853077550        2.4478123023       -0.2367977693
 C          0.6933575730        3.6547045205       -0.3322461567
 C         -0.6834516076        3.6564645086       -0.3333559875
 C         -1.3786999672        2.4513685594       -0.2388392369
 C         -0.7116946350        1.2311021857       -0.1012163466
 C         -3.6553320397       -0.6527007589       -0.9463428128
 C         -5.0346394697       -0.6352165941       -0.8750746540
 H         -6.7520120114        0.0346390242        0.2182421358
 H         -5.4112056145        1.1966811017        1.9360099471
 H         -2.9552584990        1.1740805195        1.8085595204
 H         -2.4613451158       -2.4822996425        0.1352437438
 H         -1.2451062315       -4.6056820718        0.1923065767
 H          1.2334398821       -4.6089916742        0.1897834213
 H          2.4551574698       -2.4887872900        0.1308510504
 H          3.1578799752       -1.1523995166       -1.7723570801
 H          5.6132276042       -1.1482299921       -1.6374179266
 H          6.7519391123        0.0164339159        0.2179725143
 H          5.4142699715        1.1763189370        1.9397273714
 H          2.9580921214        1.1603906617        1.8123565032
 H          2.4630551589        2.4578001714       -0.2849197676
 H          1.2451116862        4.5786956274       -0.4195934036
 H         -1.2326933428        4.5817782548       -0.4227511429
 H         -2.4563029660        2.4642074510       -0.2890828024
 H         -3.1610868945       -1.1500584098       -1.7685066659
 H         -5.6163970943       -1.1389557933       -1.6334288205
  44
        -64.76623663
 C         -5.6464887455       -0.0539665246        0.4130121377
 C         -5.0929234496        0.6671764882       -0.6331702823
 C         -3.7238765932        0.6959469637       -0.8160470648
 C         -2.8734888840       -0.0050016111        0.0445834396
 C         -1.4234027247        0.0148797431       -0.1101025341
 C         -0.7169131171       -1.2258559472       -0.1976582962
 C         -1.3934622324       -2.4376836241       -0.3538233708
 C         -0.7151553715       -3.6559805865       -0.3530363620
 C          0.6508090098       -3.6768708310       -0.1782204245
 C          1.3557618951       -2.4791369147       -0.0688312327
 C          0.7090313256       -1.2419566022       -0.1391537493
 C          1.4230829651       -0.0059691261       -0.1178380794
 C          2.8738822738        0.0104798002        0.0365251429
 C          3.4490825388        0.7289562870        1.0910501964
 C          4.8151701569        0.7297073858        1.2852215193
 C          5.6437793293        0.0269153095        0.4236629029
 C          5.0908757194       -0.6719167762       -0.6376841756
 C          3.7227933079       -0.6848623357       -0.8296714694
 C          0.7167423959        1.2342592560       -0.2021157306
 C          1.3942346719        2.4452054165       -0.3611881403
 C          0.7167410970        3.6638959903       -0.3591561983
 C         -0.6481007912        3.6856689311       -0.1758385958
 C         -1.3536171316        2.4886331873       -0.0599913793
 C         -0.7088975211        1.2508244612       -0.1355950066
 C         -3.4492011434       -0.7408433424        1.0874347363
 C         -4.8164497854       -0.7589371571        1.2715080633
 H         -6.7163439362       -0.0697086346        0.5571542136
 H         -5.7346513913        1.2077028319       -1.3139972279
 H         -3.3019494248        1.2314935267       -1.6541425360
 H         -2.4648040976       -2.4338233003       -0.4825941845
 H         -1.2697552795       -4.5746566201       -0.4719030255
 H          1.1851321090       -4.6141334650       -0.1336717791
 H          2.4232505310       -2.5136391992        0.0808601202
 H          2.8033151495        1.2609368714        1.7747935937
 H          5.2375781607        1.2767167713        2.1156180195
 H          6.7124226988        0.0273002977        0.5770860446
 H          5.7320412477       -1.2092631530       -1.3215319740
 H          3.3004821536       -1.2071930231       -1.6759904348
 H          2.4652802153        2.4391669957       -0.4929970074
 H          1.2709230163        4.5822167505       -0.4828307096
 H         -1.1814430701        4.6234249384       -0.1298718409
 H         -2.4198296237        2.5246345578        0.0982614533
 H         -2.8030960303       -1.2740191014        1.7699579147
 H         -5.2386620071       -1.3196718389        2.0929009948
  44
        -64.76591008
 C         -5.6390041886       -0.0022759016        0.4382351522
 C         -5.1022119966        0.5106142430       -0.7318791905
 C         -3.7348744007        0.5124828625       -0.9314803147
 C         -2.8733132434       -0.0089675154        0.0367918226
 C         -1.4212232891        0.0009567187       -0.1254727470
 C         -0.7065121155       -1.2340720787       -0.0708362030
 C         -1.3726141010       -2.4627840102       -0.0802200079
 C         -0.6736013317       -3.6688628705       -0.0783581293
 C          0.7035428284       -3.6631751267       -0.1023042503
 C          1.3927011674       -2.4511647014       -0.1201023853
 C          0.7182769814       -1.2282584793       -0.0823736965
 C          1.4236732023        0.0145805888       -0.1261101229
 C          2.8737074494        0.0098738667        0.0379215627
 C          3.4342801814       -0.5780811269        1.1778552000
 C          4.7994074050       -0.5755981668        1.3778070093
 C          5.6413436621        0.0002555004        0.4384187990
 C          5.1026674227        0.5701135506       -0.7042724105
 C          3.7354523340        0.5796671712       -0.9036376988
 C          0.7096320342        1.2433376546       -0.2774303765
 C          1.3679077200        2.4750946613       -0.3224100333
 C          0.6688204193        3.6760586131       -0.4397162571
 C         -0.7073857752        3.6671594468       -0.4592472426
 C         -1.3931357169        2.4575669127       -0.3542687176
 C         -0.7195499516        1.2352051064       -0.2862396162
 C         -3.4309243508       -0.5436144966        1.2026974004
 C         -4.7963942734       -0.5319146338        1.4034273826
 H         -6.7069724366        0.0074368438        0.5963974926
 H         -5.7550226320        0.9098578801       -1.4946532867
 H         -3.3231302100        0.8894417036       -1.8566700299
 H         -2.4512776241       -2.4803441367       -0.1045411210
 H         -1.2193164462       -4.6005832552       -0.0739607493
 H          1.2570390092       -4.5901217660       -0.1197060848
 H          2.4701273049       -2.4611581509       -0.1787482058
 H          2.7777146247       -1.0108999130        1.9189070241
 H          5.2107175204       -1.0205881202        2.2722938336
 H          6.7095790481        0.0009081204        0.5949918073
 H          5.7546422180        1.0074212373       -1.4466518454
 H          3.3244017853        0.9972409978       -1.8114751621
 H          2.4431798832        2.5055698252       -0.2474536308
 H          1.2147334794        4.6059073663       -0.4969591624
 H         -1.2638817808        4.5893642519       -0.5345580334
 H         -2.4703829130        2.4733289845       -0.3075059518
 H         -2.7732477157       -0.9407361367        1.9625835746
 H         -5.2068639506       -0.9320670578        2.3191905682
  44
        -64.76565108
 C         -5.6112708777       -0.0481530266        0.5750576104
 C         -5.1195342248        0.6226687600       -0.5331841821
 C         -3.7622012362        0.6456443712       -0.7922115032
 C         -2.8651690735       -0.0132935515        0.0522868807
 C         -1.4209305651        0.0113447444       -0.1608427521
 C         -0.7153351493       -1.2281677681       -0.2597867265
 C         -1.3976760839       -2.4363593978       -0.4164402164
 C         -0.7210726951       -3.6555237183       -0.4415164904
 C          0.6470867303       -3.6799017348       -0.2855001701
 C          1.3556107080       -2.4852915070       -0.1615763831
 C          0.7106297443       -1.2462757436       -0.2072477522
 C          1.4218441566       -0.0093744486       -0.1576495198
 C          2.8655084547        0.0140077780        0.0537660537
 C          3.3845345446        0.7201935737        1.1452370287
 C          4.7393576621        0.7259984968        1.4056113120
 C          5.6131296604        0.0421409634        0.5738438437
 C          5.1169009349       -0.6409838849       -0.5249101810
 C          3.7595032508       -0.6597209841       -0.7830344031
 C          0.7157296903        1.2306437772       -0.2557465050
 C          1.3965291628        2.4399570121       -0.4097035429
 C          0.7184467326        3.6584608795       -0.4343373603
 C         -0.6504635996        3.6814696792       -0.2843890139
 C         -1.3579738434        2.4859037872       -0.1658621505
 C         -0.7103858019        1.2480071850       -0.2074938332
 C         -3.3789841930       -0.7070692633        1.1536456571
 C         -4.7335609310       -0.7156664704        1.4157775123
 H         -6.6711726327       -0.0554294188        0.7805585948
 H         -5.8003442961        1.1293284374       -1.2019214059
 H         -3.3882109207        1.1457710977       -1.6739446878
 H         -2.4715474807       -2.4269987484       -0.5239721066
 H         -1.2779873970       -4.5721567946       -0.5651851368
 H          1.1807368737       -4.6183920611       -0.2637203876
 H          2.4238261289       -2.5247154962       -0.0191410433
 H          2.7026848901        1.2385494011        1.8040152558
 H          5.1174706580        1.2624298121        2.2638274239
 H          6.6732716840        0.0472662587        0.7781064050
 H          5.7943181021       -1.1612009239       -1.1866630891
 H          3.3828905729       -1.1682180909       -1.6587944631
 H          2.4705394351        2.4328736057       -0.5157260157
 H          1.2749246321        4.5758236038       -0.5546326484
 H         -1.1851622344        4.6194027721       -0.2647150506
 H         -2.4275826555        2.5224503886       -0.0328148164
 H         -2.6936179601       -1.2138293946        1.8177931125
 H         -5.1080540575       -1.2408132300        2.2825021397
  44
        -64.76548015
 C         -5.6201335128       -0.0351870668        0.5453280580
 C         -5.1247800498        0.5280561698       -0.6199367200
 C         -3.7649355197        0.5478063484       -0.8649954347
 C         -2.8675072819       -0.0039647920        0.0533126052
 C         -1.4223570500        0.0117083205       -0.1503790885
 C         -0.7094200075       -1.2269647894       -0.1202176761
 C         -1.3765042893       -2.4540485865       -0.1573668256
 C         -0.6784428436       -3.6608303127       -0.1671110948
 C          0.6990180546       -3.6571360083       -0.1696715455
 C          1.3896593189       -2.4462546837       -0.1620567943
 C          0.7146901014       -1.2234848645       -0.1230690157
 C          1.4214075379        0.0177548859       -0.1565844641
 C          2.8673356461        0.0101731105        0.0490619548
 C          3.3826019175       -0.5489470366        1.2237514157
 C          4.7393326430       -0.5431232099        1.4748941624
 C          5.6169893919        0.0046770476        0.5517326941
 C          5.1233732862        0.5408889296       -0.6268491831
 C          3.7641846085        0.5486636569       -0.8769341189
 C          0.7118962132        1.2462673053       -0.3262456279
 C          1.3761247859        2.4733427861       -0.4001960414
 C          0.6818622643        3.6759917881       -0.5261752551
 C         -0.6944528370        3.6740580314       -0.5191997671
 C         -1.3849217091        2.4695522137       -0.3873205158
 C         -0.7178323483        1.2437523553       -0.3215337914
 C         -3.3848689151       -0.5876471715        1.2157145413
 C         -4.7425107624       -0.5956414250        1.4610203621
 H         -6.6825459846       -0.0422195567        0.7373049996
 H         -5.8050905343        0.9518268591       -1.3445316701
 H         -3.3888007707        0.9578371507       -1.7911840528
 H         -2.4548441262       -2.4708990720       -0.1945575892
 H         -1.2255913492       -4.5915610042       -0.1849217084
 H          1.2511980116       -4.5848090153       -0.1894953191
 H          2.4680674427       -2.4549559793       -0.2016313428
 H          2.6972108999       -0.9624963899        1.9495986838
 H          5.1156684926       -0.9642112674        2.3959302917
 H          6.6785283501        0.0088129469        0.7485385727
 H          5.8041625892        0.9539489006       -1.3570958815
 H          3.3882938064        0.9409298056       -1.8109455687
 H          2.4525345374        2.4984301098       -0.3424529665
 H          1.2314863374        4.6018502708       -0.6074462177
 H         -1.2472541865        4.5984526469       -0.5947737934
 H         -2.4606043670        2.4936307975       -0.3176246188
 H         -2.7002332212       -1.0095703671        1.9374181907
 H         -5.1199056897       -1.0377590364        2.3717211246
  44
        -64.76524604
 C         -5.6084000925       -0.0101493801        0.5957778446
 C         -5.1282006259       -0.5618530523       -0.5812239023
 C         -3.7726972863       -0.5664843103       -0.8505011966
 C         -2.8648555108       -0.0108544004        0.0550435995
 C         -1.4220779362       -0.0176620914       -0.1659089918
 C         -0.7109489398       -1.2450543891       -0.3423426962
 C         -1.3717359476       -2.4738205932       -0.4159123362
 C         -0.6753018873       -3.6739788207       -0.5541749002
 C          0.7010462805       -3.6687657319       -0.5582404408
 C          1.3889193458       -2.4634310848       -0.4226157063
 C          0.7189480964       -1.2399254971       -0.3442526255
 C          1.4216322969       -0.0080956616       -0.1662796537
 C          2.8647118687        0.0073529605        0.0547002620
 C          3.3631757088        0.5765199364        1.2321861190
 C          4.7162783281        0.5765061685        1.5016341622
 C          5.6079106120        0.0237436227        0.5948845003
 C          5.1316793767       -0.5210670076       -0.5868565560
 C          3.7761448729       -0.5333798080       -0.8559287833
 C          0.7077488199        1.2295731170       -0.1377393618
 C          1.3753043796        2.4563691120       -0.1769868429
 C          0.6770011562        3.6627529349       -0.1917672235
 C         -0.7006012114        3.6582550166       -0.1953159367
 C         -1.3912036590        2.4473395194       -0.1828886100
 C         -0.7160900312        1.2249335120       -0.1394451166
 C         -3.3678002333        0.5655616125        1.2273691761
 C         -4.7207352185        0.5577100609        1.4971455879
 H         -6.6670879533       -0.0167648314        0.8075444840
 H         -5.8168995177       -0.9896896332       -1.2954437057
 H         -3.4091193681       -0.9677775339       -1.7855101399
 H         -2.4472635661       -2.5036484326       -0.3467882554
 H         -1.2234394501       -4.6007089125       -0.6357011935
 H          1.2557452106       -4.5912517730       -0.6433986763
 H          2.4650720342       -2.4846451507       -0.3599488035
 H          2.6670958605        0.9929295585        1.9460969496
 H          5.0789526543        1.0057894375        2.4243822965
 H          6.6667545885        0.0238825569        0.8060318584
 H          5.8235435623       -0.9360011223       -1.3056274238
 H          3.4150032027       -0.9303821470       -1.7937201014
 H          2.4538223584        2.4719335776       -0.2117228961
 H          1.2235046419        4.5937699331       -0.2128459860
 H         -1.2530729889        4.5856850766       -0.2192016501
 H         -2.4696485772        2.4561990919       -0.2219167546
 H         -2.6747614881        0.9923074855        1.9381678181
 H         -5.0864443229        0.9925608148        2.4160803876
  44
        -64.76482469
 C         -5.6535024647        0.0125112167        0.2527694313
 C         -5.0592678481        0.0471528971       -0.9974933487
 C         -3.6805854257        0.0351515863       -1.1142830028
 C         -2.8792790684       -0.0095684319        0.0219727506
 C         -1.4066468728       -0.0095394772       -0.0760110712
 C         -0.7079076926       -1.2423744181       -0.1685771595
 C         -1.3948927309       -2.4572206095       -0.2466712323
 C         -0.7123874817       -3.6737490437       -0.2730832532
 C          0.6613839586       -3.6870099383       -0.1894935546
 C          1.3708443823       -2.4854573224       -0.1081372883
 C          0.7200665380       -1.2510526715       -0.1383071852
 C          1.4292241915       -0.0109894122       -0.0689581729
 C          2.8848232526        0.0008955122        0.0258038715
 C          3.5122874084        0.6516806458        1.0940968869
 C          4.8876981349        0.6609830481        1.2073303554
 C          5.6719911739        0.0351687693        0.2502749808
 C          5.0653708171       -0.6039704234       -0.8197131125
 C          3.6887651707       -0.6277840134       -0.9300715986
 C          0.7178701334        1.2307793204       -0.0661269875
 C          1.3750790830        2.4597078786       -0.1384336568
 C          0.6689322658        3.6656885942       -0.1209803070
 C         -0.7056674817        3.6595367600       -0.0469608253
 C         -1.3924616357        2.4457179738       -0.0171234180
 C         -0.7087182248        1.2265552407       -0.0429262181
 C         -3.4845705122       -0.0452658415        1.2750241621
 C         -4.8627047782       -0.0353402038        1.3885928979
 H         -6.7296698211        0.0233169875        0.3421002210
 H         -5.6721814628        0.0839778034       -1.8863822040
 H         -3.2149090365        0.0631296706       -2.0889968856
 H         -2.4739420954       -2.4486680363       -0.2818845397
 H         -1.2685670375       -4.5966136377       -0.3424444203
 H          1.2020950506       -4.6216668008       -0.1817437008
 H          2.4442789873       -2.5203316763       -0.0071864315
 H          2.9020557857        1.1237086464        1.8506540824
 H          5.3527097346        1.1562551772        2.0474535780
 H          6.7480428856        0.0469946205        0.3375264562
 H          5.6714412450       -1.0836298698       -1.5747277171
 H          3.2216401614       -1.1028487735       -1.7806740600
 H          2.4506350672        2.4851007270       -0.2211768701
 H          1.2125820535        4.5974971294       -0.1668507938
 H         -1.2593105697        4.5862579684       -0.0241890336
 H         -2.4714718884        2.4429663153        0.0187290505
 H         -2.8636722072       -0.0805060557        2.1587355404
 H         -5.3202064940       -0.0620855110        2.3669069369
