  92
       -146.78025457
 C          1.2316383960       -4.2958588296       -3.9005165098
 C         -0.0267846590       -4.0606126958       -3.0639245207
 C         -1.2962087861       -4.3230026505       -3.8751201324
 C         -0.0022155391       -4.9280897378       -1.8288485520
 C          0.0072285655       -6.3111222572       -1.9465471852
 C          0.0409563306       -7.1166927349       -0.8250432425
 C          0.0627389246       -6.5492091541        0.4344348978
 C          0.0451773653       -5.1707204526        0.5933632807
 C          0.0879526434       -4.5607148147        1.9740058426
 C         -1.0240519508       -5.1169018478        2.8634024604
 C          1.4678993041       -4.7947906253        2.5919801387
 C          0.0178897627       -4.3740460605       -0.5505878905
 N          0.0119169096       -2.9467667906       -0.4033747373
 C         -1.2349831634       -2.3369726855       -0.3226790397
 O         -2.2662422726       -3.0021014310       -0.3960722720
 C         -1.2215523361       -0.8981781471       -0.1356758588
 C         -2.4378909427       -0.2044485040       -0.0390876406
 C         -2.4368760569        1.1630737038        0.1445509819
 N         -3.6674927356        1.8623168804        0.2503543289
 C         -4.5277492479        1.6196569484        1.3071888769
 C         -4.2232887156        0.7124855871        2.3214666983
 C         -5.1060601362        0.5006952992        3.3630322153
 C         -6.3064829615        1.1914126143        3.4213104764
 C         -6.6176715159        2.1127264976        2.4364190970
 C         -5.7375421915        2.3333156009        1.3895036697
 O         -6.0895764264        3.2736832105        0.4633962916
 C         -5.2381117360        3.4898810917       -0.5812593587
 C         -5.6156711217        4.4295469755       -1.5266258043
 C         -4.8037249809        4.6782618265       -2.6199236048
 C         -3.6211321023        3.9722279505       -2.7741800012
 C         -3.2364621173        3.0328494716       -1.8363504971
 C         -4.0261258984        2.7874354864       -0.7130776364
 C         -1.2427960448        1.8799909479        0.2441919329
 C         -0.0099376172        1.2128579661        0.1483540094
 C          1.2159319816        1.8941370198        0.2316514670
 C          2.4175089717        1.1918387099        0.1166272444
 N          3.6390712966        1.9075645094        0.2156481839
 C          4.5128055199        1.6722747333        1.2633806790
 C          4.2437537567        0.7373780245        2.2624828652
 C          5.1394170624        0.5344562510        3.2947238185
 C          6.3175223907        1.2620815893        3.3594561959
 C          6.5930830344        2.2107486092        2.3901958841
 C          5.7000829926        2.4221310497        1.3522694547
 O          6.0165215359        3.3907472396        0.4427233366
 C          5.1563342360        3.5946152611       -0.5971086228
 C          5.5009047841        4.5598920470       -1.5291919552
 C          4.6787276629        4.7979633081       -2.6171987812
 C          3.5197611436        4.0556094635       -2.7800072561
 C          3.1676750959        3.0911097175       -1.8549396398
 C          3.9668667120        2.8561073086       -0.7361375137
 C          2.4326325713       -0.1748008192       -0.0731784119
 C          1.2234903460       -0.8831392670       -0.1546178579
 C         -0.0025397309       -0.1983422670       -0.0473753497
 C          1.2516222829       -2.3214183811       -0.3451156526
 O          2.2906652025       -2.9715816607       -0.4417431952
 H          2.1146505818       -4.1025601149       -3.2962812547
 H          1.2435824497       -3.6303090646       -4.7616364164
 H          1.2746891845       -5.3214248394       -4.2568171436
 H         -0.0353749765       -3.0114046744       -2.7616439342
 H         -2.1707105028       -4.1506575923       -3.2525093217
 H         -1.3405526883       -3.6559332111       -4.7340420961
 H         -1.3235796156       -5.3483205947       -4.2336072318
 H         -0.0091474792       -6.7641094651       -2.9256144610
 H          0.0515710991       -8.1920446148       -0.9326903212
 H          0.0948725436       -7.1877446664        1.3033496721
 H         -0.0649079823       -3.4826113270        1.8902032345
 H         -0.8844185923       -6.1776185470        3.0508949453
 H         -1.9885272590       -4.9735233556        2.3821976126
 H         -1.0315414369       -4.5995628919        3.8211117863
 H          1.5358645400       -4.3148098106        3.5665898333
 H          1.6571554132       -5.8580466937        2.7143655145
 H          2.2338186104       -4.3812595567        1.9408361525
 H         -3.3575149591       -0.7607437510       -0.1197382286
 H         -3.2903100147        0.1753786374        2.2817767389
 H         -4.8514001952       -0.2102742298        4.1334179671
 H         -6.9960520030        1.0203273124        4.2323390751
 H         -7.5367922369        2.6758955754        2.4592417929
 H         -6.5502213999        4.9487014614       -1.3869894992
 H         -5.1011347450        5.4119144982       -3.3520105271
 H         -2.9928299725        4.1483131230       -3.6333500256
 H         -2.3233251146        2.4754917008       -1.9660661337
 H         -1.2653996072        2.9463120662        0.4110613748
 H          1.2278951822        2.9602235933        0.4012181026
 H          3.3277808152        0.1720699628        2.2189464710
 H          4.9123474567       -0.1985965564        4.0528202765
 H          7.0172629678        1.0979711067        4.1631877348
 H          7.4937160929        2.8027535962        2.4184876343
 H          6.4181354800        5.1074229614       -1.3834445831
 H          4.9506163644        5.5511909221       -3.3392261502
 H          2.8853722325        4.2219749819       -3.6366021620
 H          2.2734074694        2.5055147974       -1.9915709969
 H          3.3577141715       -0.7194930229       -0.1695371420
