92
 energy: -146.840138045552 gnorm: 0.000045200730 xtb: 6.7.1 (edcfbbe)
C           -1.89108390769832       -4.77375355387802       -2.26077802396758
C           -0.39261718819669       -4.90931848279956       -1.96113389968943
C            0.36761981151659       -3.67095575930864       -2.43828569707580
C           -0.21650452862100       -5.28698644575061       -0.50326322696448
C           -0.21324593186066       -6.64942941827179       -0.21640771524692
C           -0.11724373712076       -7.11821216880062        1.07775049920500
C           -0.02606031524453       -6.22239128436065        2.12432316101274
C           -0.02964075168601       -4.85504857000591        1.88850287303339
C            0.08221949916516       -3.89583784638015        3.05204055974587
C           -1.02826716452407       -4.13517827272437        4.07739791768420
C            1.46969142230129       -4.01098369346083        3.68919014719089
C           -0.12144601742865       -4.40047647294109        0.57001461624756
N           -0.09216722873224       -2.98220070274894        0.35120642732530
C           -1.31024441587184       -2.32070564113107        0.31761276896462
O           -2.36490806742993       -2.95301393606489        0.44881071731972
C           -1.25314219637212       -0.89275022451048        0.10978182889213
C           -2.44508626438527       -0.15639780116204        0.01767921066873
C           -2.39399431819143        1.20921515739071       -0.18668295413606
N           -3.60194913385797        1.95333425531755       -0.29414440313052
C           -3.96124234083740        2.84082508546283        0.70482510938318
C           -3.20261304547176        3.00270121087706        1.86450052188307
C           -3.59021974090529        3.90613669201447        2.83566477535968
C           -4.74265790672784        4.66179116356589        2.67663269360183
C           -5.52096822197697        4.50085137077718        1.54352399775485
C           -5.14150078664234        3.59558579122299        0.56460193369146
O           -5.95679113133094        3.46626453811215       -0.52213748437913
C           -5.60474414957834        2.56480184030438       -1.48452866407177
C           -6.44973477016275        2.43562698781650       -2.57587326927856
C           -6.13625738379634        1.55151352725124       -3.59329240681644
C           -4.97022091897142        0.80319499608381       -3.52244735786536
C           -4.12162122708675        0.92515731677925       -2.43883584793271
C           -4.42755910345692        1.79720751863993       -1.39387576805465
C           -1.17869175457210        1.87929585958806       -0.29915157918276
C            0.03181938126401        1.17086917579138       -0.20117097793547
C            1.28192834194005        1.80733303698688       -0.29616661883862
C            2.45509922619879        1.06663838657750       -0.18126729088053
N            3.70679161425049        1.73486408362761       -0.28853068489362
C            4.12839071898485        2.58878378693431        0.71511814423549
C            3.37582493098345        2.81067119007090        1.86878808048030
C            3.82770531365863        3.67843626414625        2.84471026799812
C            5.03970309509343        4.33705011134040        2.69702011912643
C            5.81161353437086        4.11465102915967        1.56996644664639
C            5.36743911200566        3.24511064180672        0.58588152129080
O            6.17846308247451        3.05164932112815       -0.49450751722043
C            5.75690258277513        2.19261500447227       -1.46759630657828
C            6.59259534073593        2.00428112836482       -2.55747093013102
C            6.21027099596112        1.15972953111883       -3.58490964157598
C            4.98513516848218        0.51129257891895       -3.52593872105504
C            4.14581375339270        0.69172527586110       -2.44331988853058
C            4.51993488403691        1.52421092923088       -1.38826907430633
C            2.42536539162826       -0.29967194423759        0.02285552899398
C            1.19254198264117       -0.96509091021072        0.11231547150435
C           -0.00968008885093       -0.23771546096738        0.00576794477263
C            1.16561123128300       -2.39453919475134        0.31238804779204
O            2.17986110012792       -3.09134673976092        0.42911776426628
H           -2.34331386868434       -4.03154406072416       -1.60656259851173
H           -2.39795861353052       -5.72118433669523       -2.09060691822372
H           -2.04307059647309       -4.47402738045774       -3.29554789853281
H           -0.01116781344414       -5.75776597401396       -2.54316799587724
H            1.37780565778280       -3.65976519724496       -2.03354332833573
H            0.43272076697431       -3.68489736390241       -3.52510423459352
H           -0.13857027654622       -2.75393939348842       -2.14530103172442
H           -0.28614102039011       -7.35402781729041       -1.03300348261087
H           -0.11147277399914       -8.18115979101214        1.27024821741926
H            0.05243304223728       -6.59029588430059        3.13583905765061
H           -0.03045225213538       -2.87107312478575        2.68173845298402
H           -0.93535163301839       -5.11538424721894        4.53691584571951
H           -2.00063601046234       -4.06935162892594        3.59249542714005
H           -0.97793355394877       -3.38144540435260        4.86066288553559
H            1.58040591147111       -3.27945026753441        4.48716808862816
H            1.62338958661335       -5.00486976620966        4.10190861325882
H            2.23401483429897       -3.82776369413520        2.93563881184466
H           -3.38395983344835       -0.68029661244806        0.11138586403377
H           -2.31214324530557        2.40957658544510        1.99625299220755
H           -2.98844226791287        4.01664698644498        3.72400072623441
H           -5.04137976644254        5.36747524037424        3.43513414923810
H           -6.42923684049980        5.06281792777984        1.39643708045221
H           -7.34316629756888        3.03842963821437       -2.60575018851771
H           -6.79729518222209        1.45202864430460       -4.43922149702780
H           -4.71577427920645        0.11914766940533       -4.31672938739952
H           -3.21506421539097        0.34356665913470       -2.39029829433169
H           -1.16300132279775        2.94466870552440       -0.46974901117865
H            1.32903287737191        2.87162178438467       -0.46760527880832
H            2.43884992411503        2.29210704996732        1.99205636367397
H            3.22956346861147        3.83700232470838        3.72821856816109
H            5.38875659970357        5.01469253685217        3.45960271879509
H            6.76419935927073        4.60028804298894        1.43161796315222
H            7.53340881716752        2.53047288147988       -2.57812255675551
H            6.86397224253872        1.01397483053023       -4.42982054011831
H            4.67745754213610       -0.14056368381450       -4.32837507260372
H            3.19419465951354        0.18646143497683       -2.40299230365486
H            3.33161228486480       -0.87815431239441        0.11569465212046
