92
 energy: -146.844139891987 gnorm: 0.000133296952 xtb: 6.7.1 (edcfbbe)
C            1.14464146065486       -4.21392375768465       -3.97713119680556
C           -0.08916330644859       -4.00614451229023       -3.09566789658825
C           -1.38432183093342       -4.25146071101235       -3.87316926671973
C           -0.02564448240259       -4.89629461025935       -1.87646807381077
C           -0.00325780215251       -6.27769835524379       -2.01790856624743
C            0.06768753755506       -7.10205768954764       -0.91201321232157
C            0.11186557354851       -6.55702572920350        0.35666195023402
C            0.08063018528170       -5.18138812912158        0.54228579815001
C            0.14799517001978       -4.59384498848389        1.93308100361024
C           -0.92310908802491       -5.18731611635433        2.85007137811579
C            1.55252479969409       -4.79577159530260        2.50922675645490
C            0.01795930866158       -4.36702730879827       -0.58803510237842
N            0.00674643388473       -2.94194700087844       -0.41704154643676
C           -1.23819592936042       -2.33166684403587       -0.34368562620258
O           -2.26616087559562       -3.01050259518081       -0.43893352405906
C           -1.22951048448910       -0.90101310656664       -0.14564284587440
C           -2.44586901077865       -0.20573860754990       -0.05476660629417
C           -2.44196148151878        1.16185411607213        0.14263898902734
N           -3.67607758819725        1.86316573166620        0.24401284576522
C           -4.49301964799045        1.68818850343834        1.34703987842740
C           -4.14291314644450        0.85407870422728        2.40893012932819
C           -4.98413374088999        0.71138594751393        3.49575316340126
C           -6.18723493933609        1.39996242136626        3.55206003514200
C           -6.54564627937408        2.24591305683126        2.51712128920581
C           -5.70790386498100        2.39635283667124        1.42294932035644
O           -6.10491081037379        3.25850439420900        0.44226149982234
C           -5.29076395596721        3.41613920532191       -0.64162664758399
C           -5.70943881507981        4.28996385171391       -1.63302454584646
C           -4.93332413131083        4.47735557968840       -2.76358299366693
C           -3.74305963901832        3.77948430331804       -2.90746371975261
C           -3.31656164724723        2.90718746810698       -1.92417206887568
C           -4.07330920778554        2.71995597599239       -0.76713954387946
C           -1.25079295676778        1.87370427143732        0.25392706797133
C           -0.01660303044014        1.20638978752476        0.16226600863876
C            1.21011561956205        1.88605726497843        0.26278561823133
C            2.40938319318682        1.18651618090192        0.15922838755024
N            3.63528769540570        1.89999409360080        0.27160761918732
C            4.44965501524718        1.72453915644719        1.37672109075985
C            4.10806461251100        0.87237534428388        2.42704804121664
C            4.94641636518277        0.73010467429180        3.51612081773128
C            6.13790586043116        1.43731152011986        3.58671492813287
C            6.48739450599901        2.30128001620734        2.56373378309507
C            5.65257306678369        2.45122184620841        1.46721164887105
O            6.04059535608971        3.33131729006457        0.49903295832121
C            5.23147510138902        3.48605187244362       -0.58897997734908
C            5.64308709552376        4.37539556945844       -1.56949040558046
C            4.87216308160999        4.56046296647449       -2.70396214718380
C            3.69462423745096        3.84447511366529       -2.86289227890794
C            3.27517888922717        2.95676247397401       -1.89042860985643
C            4.02620302184712        2.77174928441559       -0.72926616972125
C            2.42819006293259       -0.18068977455528       -0.03981203849674
C            1.21955583329887       -0.88812323129390       -0.13861938140882
C           -0.00889132540211       -0.20336067584835       -0.04234457944394
C            1.24400771205582       -2.31803624189223       -0.33710811615752
O            2.28047946871026       -2.98504650556115       -0.42874013276727
H            2.04752168768942       -4.03211394841339       -3.39648727087306
H            1.12468791418530       -3.52316286221965       -4.81767223930639
H            1.18067110865121       -5.22936965263474       -4.36289640028081
H           -0.09161185276585       -2.96066853723516       -2.76753804650524
H           -2.24024596757007       -4.09262432188657       -3.21935368216359
H           -1.45337193685019       -3.56291476869545       -4.71295238076785
H           -1.42321342921775       -5.26883255842287       -4.25359009806304
H           -0.03738548672197       -6.71333290052064       -3.00497938523855
H            0.09040058068896       -8.17469507558703       -1.03938575053387
H            0.17343950343031       -7.21020147322474        1.21365081038513
H           -0.03629358113187       -3.51556611962668        1.86571528841343
H           -0.74869414486539       -6.24528078079351        3.02557077870435
H           -1.90659564096455       -5.06658451094372        2.39963565637798
H           -0.91410175188610       -4.67417132577102        3.80959878765775
H            1.63212133936534       -4.32323434561757        3.48621269063509
H            1.77497691511633       -5.85505673385628        2.61278102777260
H            2.29052149132017       -4.35251878207833        1.84245189660601
H           -3.36589872549646       -0.76260093855889       -0.14437116512173
H           -3.20819247252588        0.31810735311260        2.37032228953548
H           -4.69529439083366        0.05761557115328        4.30364985664161
H           -6.84220080991367        1.28417934134939        4.40062317044471
H           -7.46904391653528        2.80219666795889        2.53533342325276
H           -6.64587775372609        4.80679516777774       -1.49756020287882
H           -5.26247432849097        5.15858122042674       -3.53180695330892
H           -3.14210195138998        3.91069462946674       -3.79352098249218
H           -2.39657859286077        2.35828751959282       -2.04411911175398
H           -1.27179333958501        2.93960937802178        0.42050215508187
H            1.21901239773380        2.95192112778962        0.43073859806024
H            3.18231673860022        0.32190062483172        2.37790686294771
H            4.66441935923698        0.06194805007004        4.31460017953585
H            6.79058862137028        1.32190760716533        4.43709110183859
H            7.40146471177585        2.87230479500005        2.59316160916217
H            6.57000656303091        4.90609565285557       -1.42256772979951
H            5.19567244680729        5.25399372206397       -3.46354253732813
H            3.09800995167292        3.97378927923026       -3.75216888736276
H            2.36529468056547        2.39390100351717       -2.02223368769411
H            3.35433124960139       -0.72806525485209       -0.12484137936040
