  92
       -146.82883599
 C         -1.8558440973       -4.6379964977       -2.3443002153
 C         -0.3550233863       -4.7660446911       -2.0570971070
 C          0.3792297729       -3.4892860159       -2.4695437195
 C         -0.1780511322       -5.2226486557       -0.6238304966
 C         -0.1710965105       -6.5979219280       -0.4105034726
 C         -0.0902634307       -7.1326778428        0.8592290353
 C         -0.0197867689       -6.2942045412        1.9537827850
 C         -0.0201965493       -4.9165528503        1.7905047940
 C          0.0480683382       -4.0211319946        3.0051960326
 C         -1.1787579440       -4.2412698779        3.8926126775
 C          1.3474061984       -4.2650551396        3.7746667509
 C         -0.0972890751       -4.3976390927        0.4971343747
 N         -0.0700945764       -2.9669049779        0.3432623675
 C         -1.2881411058       -2.3101158209        0.3449222459
 O         -2.3330834039       -2.9141116665        0.4889252707
 C         -1.2341319773       -0.8496984974        0.1439178651
 C         -2.4050343131       -0.1300097237        0.0666246894
 C         -2.3757841484        1.2606671195       -0.1404929430
 N         -3.5834431635        1.9704739391       -0.2153896723
 C         -3.8579787427        3.0222524975        0.6661946616
 C         -2.9882301789        3.3894426506        1.6857161263
 C         -3.2953569458        4.4347553920        2.5431340896
 C         -4.4818326958        5.1261166246        2.4040579496
 C         -5.3780147239        4.7491937974        1.4158829750
 C         -5.0782263149        3.7033293467        0.5615979934
 O         -6.0351115207        3.3658554566       -0.3608959545
 C         -5.7555509154        2.3294852484       -1.2147237714
 C         -6.7237157005        2.0107939385       -2.1495216714
 C         -6.4999149069        1.0007604720       -3.0725895668
 C         -5.2931938683        0.3307360589       -3.0672515791
 C         -4.3199865802        0.6462786735       -2.1316321940
 C         -4.5440895706        1.6271357853       -1.1732443906
 C         -1.1654064984        1.9124115734       -0.2588170764
 C          0.0480889674        1.2061399811       -0.1635153180
 C          1.2984421402        1.8409872490       -0.2830803687
 C          2.4704983342        1.1193051259       -0.1905195764
 N          3.7160089719        1.7571875655       -0.2930095231
 C          4.0787476069        2.7788202712        0.5915551438
 C          3.2580132833        3.1907956057        1.6342709372
 C          3.6540808881        4.2017453104        2.4965572982
 C          4.8815075245        4.8128735820        2.3387581932
 C          5.7274406843        4.3908712289        1.3247172885
 C          5.3385089879        3.3795717941        0.4648160433
 O          6.2477817064        2.9937353412       -0.4866037647
 C          5.8810186510        1.9874967486       -1.3436206675
 C          6.8022528919        1.6191026154       -2.3071124788
 C          6.4910645908        0.6350611355       -3.2330539348
 C          5.2456772055        0.0408669813       -3.2006723211
 C          4.3188175468        0.4066101973       -2.2366137843
 C          4.6290152099        1.3624759902       -1.2769726284
 C          2.4234847912       -0.2707687487        0.0168549081
 C          1.2148777783       -0.9212477786        0.1199931595
 C          0.0095195672       -0.1978873981        0.0302251259
 C          1.1876761838       -2.3818645530        0.3213273559
 O          2.1957508123       -3.0478255804        0.4456693548
 H         -2.3137575606       -3.9278846819       -1.6626786180
 H         -2.3492431036       -5.5976147530       -2.2108273266
 H         -2.0164522608       -4.3027099077       -3.3666588077
 H          0.0374949067       -5.5735976364       -2.6837965729
 H          1.3896637011       -3.4816234183       -2.0705654668
 H          0.4433890576       -3.4506774055       -3.5560756922
 H         -0.1464190664       -2.5984597276       -2.1392229050
 H         -0.2308483319       -7.2592856252       -1.2626960332
 H         -0.0841843471       -8.2038602817        0.9951659093
 H          0.0376758284       -6.7149116138        2.9449905008
 H          0.0427441849       -2.9748904574        2.6910793554
 H         -1.2057226819       -5.2581380887        4.2738958269
 H         -2.0868975589       -4.0634141952        3.3208477735
 H         -1.1589772468       -3.5569366923        4.7384315525
 H          1.4237749867       -3.5743842565        4.6119754943
 H          1.3871810639       -5.2792010613        4.1617473122
 H          2.2000753044       -4.1127831636        3.1170225263
 H         -3.3467490106       -0.6441025461        0.1791194489
 H         -2.0667577531        2.8465883391        1.8223426512
 H         -2.5966882177        4.6982608465        3.3221476499
 H         -4.7219570129        5.9451090714        3.0628809741
 H         -6.3245243002        5.2506570132        1.2933013732
 H         -7.6444927199        2.5715640533       -2.1409597672
 H         -7.2616428089        0.7557732113       -3.7952765123
 H         -5.0935337884       -0.4425830460       -3.7927869871
 H         -3.3760156625        0.1265414153       -2.1546773152
 H         -1.1416734583        2.9781183820       -0.4290772550
 H          1.3334158558        2.9066187359       -0.4521035678
 H          2.3051524289        2.7093768915        1.7852242958
 H          2.9920452712        4.5019692177        3.2940548727
 H          5.1916720091        5.6038589508        3.0025366533
 H          6.7024282929        4.8296642341        1.1859873797
 H          7.7567904858        2.1201936850       -2.3177279652
 H          7.2164879473        0.3509840808       -3.9784423434
 H          4.9789360949       -0.7107565303       -3.9274322162
 H          3.3441331624       -0.0537288274       -2.2379844206
 H          3.3359484137       -0.8388243042        0.1081262100
