  55
        -86.15716856
 O         -5.1466702708        0.0526012218       -0.0308424612
 C         -3.8885657572        0.0353582720       -0.0150381211
 C         -3.1411750465       -1.2003947161        0.0591624102
 C         -3.8683137482       -2.4084447912        0.1196505342
 C         -3.2158181718       -3.6129134658        0.1911510444
 C         -1.8262082172       -3.6600321264        0.2050998056
 C         -1.1042010288       -2.4782559458        0.1460377261
 C         -1.7428570095       -1.2530833611        0.0736445060
 C         -0.8689651117       -0.0091446237        0.0070781059
 C         -1.7052877076        1.2611754185       -0.0586229312
 C         -1.0301961888        2.4677847178       -0.1117106588
 C         -1.7166870856        3.6703131717       -0.1738018202
 C         -3.1075467372        3.6631726443       -0.1838451420
 C         -3.7955123386        2.4777527474       -0.1325003620
 C         -3.1046715391        1.2483860934       -0.0682570339
 C         -0.0342970016       -0.0854072715       -1.2442736912
 C         -0.6804535203       -0.1516281698       -2.4714859533
 C          0.0321015843       -0.2160363475       -3.6519033320
 C          1.4203785367       -0.2126715307       -3.6138059297
 C          2.0826057032       -0.1474534863       -2.4081989850
 C          1.3666169658       -0.0848130700       -1.2057856313
 N          2.0373070376       -0.0195321080        0.0001503507
 C          3.4627357486       -0.0100635158       -0.0043068006
 C          4.1445174539        1.1994073765       -0.0186412357
 C          5.5282090981        1.2048660687       -0.0244927205
 C          6.2284291195        0.0098138794       -0.0168066931
 C          5.5456513783       -1.1952725443       -0.0027565590
 C          4.1620379174       -1.2097306125        0.0038605904
 C          1.3727527454        0.0443111561        1.2095587276
 C          2.0948275643        0.1030240137        2.4084129788
 C          1.4385983429        0.1686356259        3.6173825967
 C          0.0505211986        0.1746418051        3.6624317651
 C         -0.6680979450        0.1136047853        2.4854748269
 C         -0.0279906405        0.0483679673        1.2550865114
 H         -4.9456643334       -2.3439934629        0.1078441507
 H         -3.7881603724       -4.5283255240        0.2365780336
 H         -1.3088783361       -4.6053968740        0.2613136532
 H         -0.0227057322       -2.5073829056        0.1564087940
 H          0.0519275872        2.4660043186       -0.1044422027
 H         -1.1708859156        4.6006742583       -0.2143498958
 H         -3.6521368146        4.5951961755       -0.2320794880
 H         -4.8742191808        2.4436220579       -0.1389848248
 H         -1.7600969016       -0.1509224154       -2.4871052183
 H         -0.4863853776       -0.2673406069       -4.5963641977
 H          1.9887284380       -0.2613262252       -4.5303658875
 H          3.1617251286       -0.1436073721       -2.3877356243
 H          3.5874244416        2.1241713257       -0.0240885866
 H          6.0594483943        2.1442762086       -0.0354503213
 H          7.3077528729        0.0176588006       -0.0217325630
 H          6.0906609501       -2.1268134270        0.0026911828
 H          3.6183909083       -2.1430050769        0.0156122978
 H          3.1738260653        0.0967550175        2.3826794574
 H          2.0113444190        0.2155750275        4.5311501722
 H         -0.4628261253        0.2267920432        4.6097254826
 H         -1.7476546342        0.1168614954        2.5057681643
