  55
  -86.1571685600000       0.354198834835275      !
 O         -5.1466702708        0.0526012218       -0.0308424612
 C         -3.8885657572        0.0353582720       -0.0150381211
 C         -3.1411750465       -1.2003947161        0.0591624102
 C         -3.8683137482       -2.4084447912        0.1196505342
 C         -3.2158181718       -3.6129134658        0.1911510444
 C         -1.8262082172       -3.6600321264        0.2050998056
 C         -1.1042010288       -2.4782559458        0.1460377261
 C         -1.7428570095       -1.2530833611        0.0736445060
 C         -0.8689651117       -0.0091446237        0.0070781059
 C         -1.7052877076        1.2611754185       -0.0586229312
 C         -1.0301961888        2.4677847178       -0.1117106588
 C         -1.7166870856        3.6703131717       -0.1738018202
 C         -3.1075467372        3.6631726443       -0.1838451420
 C         -3.7955123386        2.4777527474       -0.1325003620
 C         -3.1046715391        1.2483860934       -0.0682570339
 C         -0.0342970016       -0.0854072715       -1.2442736912
 C         -0.6804535203       -0.1516281698       -2.4714859533
 C          0.0321015843       -0.2160363475       -3.6519033320
 C          1.4203785367       -0.2126715307       -3.6138059297
 C          2.0826057032       -0.1474534863       -2.4081989850
 C          1.3666169658       -0.0848130700       -1.2057856313
 N          2.0373070376       -0.0195321080        0.0001503507
 C          3.4627357486       -0.0100635158       -0.0043068006
 C          4.1445174539        1.1994073765       -0.0186412357
 C          5.5282090981        1.2048660687       -0.0244927205
 C          6.2284291195        0.0098138794       -0.0168066931
 C          5.5456513783       -1.1952725443       -0.0027565590
 C          4.1620379174       -1.2097306125        0.0038605904
 C          1.3727527454        0.0443111561        1.2095587276
 C          2.0948275643        0.1030240137        2.4084129788
 C          1.4385983429        0.1686356259        3.6173825967
 C          0.0505211986        0.1746418051        3.6624317651
 C         -0.6680979450        0.1136047853        2.4854748269
 C         -0.0279906405        0.0483679673        1.2550865114
 H         -4.9456643334       -2.3439934629        0.1078441507
 H         -3.7881603724       -4.5283255240        0.2365780336
 H         -1.3088783361       -4.6053968740        0.2613136532
 H         -0.0227057322       -2.5073829056        0.1564087940
 H          0.0519275872        2.4660043186       -0.1044422027
 H         -1.1708859156        4.6006742583       -0.2143498958
 H         -3.6521368146        4.5951961755       -0.2320794880
 H         -4.8742191808        2.4436220579       -0.1389848248
 H         -1.7600969016       -0.1509224154       -2.4871052183
 H         -0.4863853776       -0.2673406069       -4.5963641977
 H          1.9887284380       -0.2613262252       -4.5303658875
 H          3.1617251286       -0.1436073721       -2.3877356243
 H          3.5874244416        2.1241713257       -0.0240885866
 H          6.0594483943        2.1442762086       -0.0354503213
 H          7.3077528729        0.0176588006       -0.0217325630
 H          6.0906609501       -2.1268134270        0.0026911828
 H          3.6183909083       -2.1430050769        0.0156122978
 H          3.1738260653        0.0967550175        2.3826794574
 H          2.0113444190        0.2155750275        4.5311501722
 H         -0.4628261253        0.2267920432        4.6097254826
 H         -1.7476546342        0.1168614954        2.5057681643
  55
  -86.1569301000000       0.275206381359481      !
 O         -5.1246755880        0.2607843393       -0.0882317271
 C         -3.8724603040        0.1469158911       -0.0470520826
 C         -3.2263524785       -1.1439502560        0.0503389392
 C         -4.0462245187       -2.2905435363        0.1107964875
 C         -3.4902704662       -3.5413166411        0.2057751142
 C         -2.1087675513       -3.6953688092        0.2432977809
 C         -1.2961623057       -2.5740654910        0.1834570131
 C         -1.8363536280       -1.3034962846        0.0883060026
 C         -0.8665341608       -0.1359800400        0.0223297130
 C         -1.5989682510        1.1997323790       -0.0508244832
 C         -0.8337344840        2.3517101433       -0.0893797721
 C         -1.4252537712        3.6029008948       -0.1658702157
 C         -2.8121804644        3.7015508577       -0.2064129370
 C         -3.5884672768        2.5720432144       -0.1687913396
 C         -2.9949040472        1.2932093678       -0.0887116845
 C         -0.0350478343       -0.2636504446       -1.2274162557
 C         -0.6794486444       -0.4166382169       -2.4476924226
 C          0.0338954127       -0.5055278106       -3.6262016697
 C          1.4205617397       -0.4380496811       -3.5937834628
 C          2.0809938072       -0.2842429786       -2.3951703328
 C          1.3644281703       -0.1943022157       -1.1951199616
 N          2.0343149506       -0.0494773937        0.0046059941
 C          3.4463584285        0.1428194133       -0.0154533817
 C          4.3041571185       -0.9396690974        0.1295793872
 C          5.6725382633       -0.7351323372        0.1090067389
 C          6.1832106505        0.5418629046       -0.0568334898
 C          5.3252924584        1.6192889475       -0.2026540392
 C          3.9557562879        1.4236998068       -0.1822446284
 C          1.3756241277       -0.0581940093        1.2191814651
 C          2.1003800141        0.0036180095        2.4160684340
 C          1.4492732869       -0.0165114544        3.6294937450
 C          0.0637001011       -0.0942914775        3.6804834626
 C         -0.6582926332       -0.1440827886        2.5049983556
 C         -0.0235618235       -0.1273473244        1.2703024606
 H         -5.1148330741       -2.1432359778        0.0805380453
 H         -4.1327136259       -4.4088948226        0.2519036161
 H         -1.6669372150       -4.6772332977        0.3176911008
 H         -0.2200460038       -2.6852416973        0.2106419714
 H          0.2445425089        2.2719746395       -0.0588170225
 H         -0.8095501122        4.4890145725       -0.1940584247
 H         -3.2831030533        4.6721419661       -0.2675270145
 H         -4.6663495045        2.6187130855       -0.1978148162
 H         -1.7580043805       -0.4643257505       -2.4600922907
 H         -0.4832041868       -0.6253539124       -4.5652392720
 H          1.9888693965       -0.5069682240       -4.5089397681
 H          3.1591286110       -0.2365366880       -2.3778789912
 H          3.8941830567       -1.9304167402        0.2581433028
 H          6.3407842871       -1.5752899032        0.2221228742
 H          7.2511760879        0.6973300298       -0.0730698862
 H          5.7216211077        2.6150418351       -0.3313749246
 H          3.2770572317        2.2560073616       -0.2956982552
 H          3.1773478985        0.0673157622        2.3857215885
 H          2.0242173172        0.0296646719        4.5419753448
 H         -0.4457764201       -0.1110658564        4.6310772071
 H         -1.7365785951       -0.1939186492        2.5302953507
  55
  -86.1562640100000       0.136001823251920      !
 O         -5.0690361455        0.4641563728       -0.2593729167
 C         -3.8324092336        0.2665135475       -0.1396967965
 C         -3.2835281998       -1.0656405734       -0.0017288303
 C         -4.1832798862       -2.1516049268        0.0265490206
 C         -3.7211037282       -3.4366713595        0.1605715291
 C         -2.3572492237       -3.6847818188        0.2693331276
 C         -1.4663979054       -2.6233521038        0.2391932974
 C         -1.9110939735       -1.3191593028        0.1067045232
 C         -0.8605404007       -0.2248042251        0.0582846803
 C         -1.4958730108        1.1625346975       -0.0019248921
 C         -0.6579406166        2.2629462721        0.0308839437
 C         -1.1612265892        3.5517561256       -0.0503772293
 C         -2.5337943250        3.7429318663       -0.1709777249
 C         -3.3818674945        2.6665302355       -0.2024823123
 C         -2.8786073006        1.3496477980       -0.1154162379
 C         -0.0408617740       -0.3856469877       -1.1965637992
 C         -0.6885343131       -0.5708720174       -2.4106187940
 C          0.0216599926       -0.6752301491       -3.5899965851
 C          1.4076355586       -0.5928565755       -3.5655336640
 C          2.0708481764       -0.4058479060       -2.3731250409
 C          1.3574632630       -0.2959994601       -1.1732946407
 N          2.0338993774       -0.1247583445        0.0203840364
 C          3.4135943170        0.2252143195       -0.0257286485
 C          3.7614681585        1.5376099309       -0.3194550204
 C          5.0953188327        1.8999861104       -0.3707347463
 C          6.0805676331        0.9567995404       -0.1301809203
 C          5.7320572460       -0.3521460087        0.1598071491
 C          4.3997206517       -0.7233642834        0.2120449450
 C          1.3880684243       -0.1937136392        1.2412869977
 C          2.1204495301       -0.1645087715        2.4342712097
 C          1.4796953784       -0.2492570552        3.6505758969
 C          0.0964715841       -0.3552019003        3.7084560878
 C         -0.6344334670       -0.3645035625        2.5372721545
 C         -0.0102226160       -0.2862939443        1.2997086311
 H         -5.2363540351       -1.9314887197       -0.0597035456
 H         -4.4237372874       -4.2572822853        0.1810405984
 H         -1.9890225712       -4.6937288257        0.3745521135
 H         -0.4032008609       -2.8079521237        0.3194860628
 H          0.4089506227        2.1162169014        0.1245276836
 H         -0.4883460366        4.3953417711       -0.0211467308
 H         -2.9359042790        4.7435384206       -0.2386146972
 H         -4.4511337700        2.7838881758       -0.2920351892
 H         -1.7664255352       -0.6293659446       -2.4196588469
 H         -0.4981869960       -0.8200221390       -4.5240037566
 H          1.9729624002       -0.6780115734       -4.4811660944
 H          3.1487913347       -0.3514605152       -2.3594447418
 H          2.9851733399        2.2642411767       -0.5091760893
 H          5.3638251311        2.9205155341       -0.5978193610
 H          7.1208106524        1.2417762420       -0.1702301216
 H          6.4997912274       -1.0883757436        0.3439618776
 H          4.1178204604       -1.7423135354        0.4327128843
 H          3.1951282619       -0.0737531863        2.4002277922
 H          2.0610562471       -0.2299197640        4.5599643516
 H         -0.4050271715       -0.4203772090        4.6612460061
 H         -1.7117757567       -0.4295257588        2.5687709879
  55
  -86.1559170400000       9.420812474081343E-002 !
 O         -5.0386758758       -0.4926206266       -0.3587980401
 C         -3.8118508736       -0.2694428454       -0.1933212551
 C         -2.8520649936       -1.3324671218       -0.0170602435
 C         -3.3431770495       -2.6565069470        0.0141766638
 C         -2.4922750551       -3.7142093642        0.2029819703
 C         -1.1287997603       -3.4957555252        0.3700067389
 C         -0.6367242321       -2.2005554190        0.3328241305
 C         -1.4770622503       -1.1187467755        0.1387032784
 C         -0.8554631690        0.2750793713        0.0567685282
 C         -1.9180493316        1.3562558960       -0.0045376918
 C         -1.4932222185        2.6732005272        0.0399030672
 C         -2.3964987044        3.7212960778       -0.0425870556
 C         -3.7527908996        3.4470707100       -0.1788256265
 C         -4.1953406956        2.1490997449       -0.2295786797
 C         -3.2831317515        1.0771721491       -0.1415536291
 C         -0.0428096374        0.3085721376       -1.2135653202
 C         -0.6914010042        0.4031177803       -2.4375393087
 C          0.0156644679        0.3836651394       -3.6234608356
 C          1.3988816942        0.2652930630       -3.5962869065
 C          2.0628429596        0.1657161497       -2.3937937162
 C          1.3528672422        0.1830577684       -1.1873176546
 N          2.0316502001        0.1029882052        0.0147594884
 C          3.3937701584       -0.3114881357       -0.0028668400
 C          4.4242469678        0.6076254591        0.1457199302
 C          5.7376978674        0.1716809098        0.1232331266
 C          6.0236772985       -1.1727220885       -0.0489226271
 C          4.9944830829       -2.0866688743       -0.2015504741
 C          3.6790818572       -1.6595520935       -0.1795643161
 C          1.3991452322        0.3290038465        1.2237525625
 C          2.1400916720        0.4118177176        2.4086576508
 C          1.5127469741        0.6592868656        3.6097823371
 C          0.1345553319        0.8195608163        3.6607834297
 C         -0.6061679474        0.7134193073        2.5003964591
 C          0.0042340222        0.4700247616        1.2776088143
 H         -4.4062676609       -2.7936872755       -0.1130406708
 H         -2.8849048018       -4.7206063770        0.2248044440
 H         -0.4534716797       -4.3234193676        0.5254579240
 H          0.4233333856       -2.0362254576        0.4618395657
 H         -0.4354006432        2.8784925655        0.1394790585
 H         -2.0432949522        4.7404223704       -0.0048620864
 H         -4.4647504347        4.2569541366       -0.2472704286
 H         -5.2419344851        1.9085149473       -0.3366405290
 H         -1.7671597420        0.4905256837       -2.4504193381
 H         -0.5051466357        0.4602896583       -4.5650137894
 H          1.9613125120        0.2532040813       -4.5175530893
 H          3.1389605872        0.0827554632       -2.3778248322
 H          4.1912752593        1.6544554051        0.2733988468
 H          6.5396691380        0.8850678962        0.2373565296
 H          7.0494447373       -1.5081164590       -0.0663479278
 H          5.2140923297       -3.1348290483       -0.3368419700
 H          2.8691865644       -2.3634992345       -0.3024427995
 H          3.2107078688        0.2802848748        2.3805563451
 H          2.1005775987        0.7247587028        4.5128140377
 H         -0.3564941064        1.0126826221        4.6016204205
 H         -1.6808584530        0.8136047450        2.5302015484
  55
  -86.1556965100000       7.460016502700477E-002 !
 O         -4.9837632474       -0.5155721574       -0.5940614341
 C         -3.7789735643       -0.2809328951       -0.3197424324
 C         -2.8229586755       -1.3353598250       -0.0807174239
 C         -3.3007912054       -2.6642880482       -0.0868265110
 C         -2.4566684760       -3.7119832842        0.1751388629
 C         -1.1148058382       -3.4774276767        0.4561221412
 C         -0.6333777392       -2.1774666572        0.4492843529
 C         -1.4659586425       -1.1061664842        0.1792545749
 C         -0.8541979570        0.2925554368        0.0986497711
 C         -1.9273061950        1.3635791720        0.0437934328
 C         -1.5282690295        2.6835619273        0.1645068665
 C         -2.4439973291        3.7204661872        0.0749133269
 C         -3.7853216726        3.4324533230       -0.1502144354
 C         -4.2017910086        2.1313442626       -0.2807925973
 C         -3.2777742352        1.0707327872       -0.1834489732
 C         -0.0613071195        0.3211712825       -1.1854193990
 C         -0.7265805836        0.4082042601       -2.4011651443
 C         -0.0367361708        0.3710915109       -3.5967248147
 C          1.3459238600        0.2440195649       -3.5885007802
 C          2.0264264487        0.1549279220       -2.3944427423
 C          1.3339676350        0.1881271107       -1.1781287781
 N          2.0310623332        0.1196113295        0.0141556556
 C          3.3856952188       -0.3161660862       -0.0173920471
 C          4.4325007807        0.5806817971        0.1520166132
 C          5.7376930428        0.1206741552        0.1270145763
 C          5.9994528581       -1.2250870234       -0.0700614738
 C          4.9542066061       -2.1160460684       -0.2481864536
 C          3.6470087332       -1.6652857756       -0.2226941306
 C          1.4170263415        0.3575669232        1.2309259179
 C          2.1741763550        0.4476008312        2.4052118725
 C          1.5634738432        0.6968102922        3.6144965440
 C          0.1853865835        0.8497493173        3.6855772387
 C         -0.5712029704        0.7373246372        2.5361474292
 C          0.0225087572        0.4956550507        1.3046495081
 H         -4.3481385391       -2.8139585688       -0.3008437316
 H         -2.8384876881       -4.7227090622        0.1669817739
 H         -0.4465535482       -4.2965727794        0.6748058060
 H          0.4114304186       -2.0023800494        0.6633677198
 H         -0.4813975695        2.9013272063        0.3304382455
 H         -2.1111102761        4.7421945798        0.1754336531
 H         -4.5062184436        4.2338481540       -0.2245561149
 H         -5.2362304707        1.8802838642       -0.4579995852
 H         -1.8017852540        0.5010131983       -2.4018315221
 H         -0.5711218522        0.4412630181       -4.5311339785
 H          1.8947479107        0.2185396501       -4.5176890600
 H          3.1024119148        0.0684544086       -2.3927490391
 H          4.2187917354        1.6293325653        0.2976813082
 H          6.5523132799        0.8166640715        0.2589994799
 H          7.0187216572       -1.5795270464       -0.0863606382
 H          5.1551118204       -3.1649762365       -0.4045028934
 H          2.8239591719       -2.3504368170       -0.3636010171
 H          3.2443051986        0.3169733526        2.3641670500
 H          2.1646579695        0.7687042828        4.5082130794
 H         -0.2925574511        1.0441433860        4.6328751425
 H         -1.6457194405        0.8341322929        2.5805579483
  55
  -86.1555776700000       6.578467078550522E-002 !
 O         -5.0032189445       -0.5420162889       -0.4671975621
 C         -3.7885441800       -0.2968622426       -0.2516464504
 C         -2.8147927503       -1.3419496465       -0.0487905901
 C         -3.2822848675       -2.6748279806       -0.0365279499
 C         -2.4205191685       -3.7166966872        0.1871232291
 C         -1.0696463650       -3.4724524923        0.4108655706
 C         -0.5996988872       -2.1686544419        0.3889771534
 C         -1.4503224336       -1.1025043513        0.1568606068
 C         -0.8527208034        0.3026769367        0.0730246426
 C         -1.9350441026        1.3638258064        0.0162503846
 C         -1.5402195525        2.6885444161        0.0956291023
 C         -2.4645399614        3.7185370653        0.0180508827
 C         -3.8116561367        3.4187726409       -0.1506925144
 C         -4.2243505515        2.1130363940       -0.2404623483
 C         -3.2907771612        1.0595386015       -0.1572718104
 C         -0.0501903553        0.3409544071       -1.2043226200
 C         -0.7044282161        0.4465381083       -2.4243908382
 C         -0.0040786283        0.4212716006       -3.6142743492
 C          1.3776861831        0.2857145432       -3.5956999018
 C          2.0472986412        0.1769812118       -2.3970369410
 C          1.3443114017        0.2003238207       -1.1868234208
 N          2.0306311867        0.1154271954        0.0107110236
 C          3.3797344797       -0.3378482922       -0.0112938705
 C          4.4372859190        0.5450419508        0.1655290315
 C          5.7363787904        0.0677736979        0.1512164029
 C          5.9818779917       -1.2816724566       -0.0419138508
 C          4.9261980611       -2.1586382086       -0.2279850233
 C          3.6249685139       -1.6903550848       -0.2140246083
 C          1.4096550696        0.3626664575        1.2223864420
 C          2.1589072706        0.4529123111        2.4014797563
 C          1.5421447891        0.7212233054        3.6036537751
 C          0.1658897944        0.8937888975        3.6621892377
 C         -0.5838336570        0.7769905856        2.5086118819
 C          0.0158543678        0.5141912767        1.2845396595
 H         -4.3368891797       -2.8312002131       -0.2049149725
 H         -2.7947966334       -4.7302266294        0.1936681741
 H         -0.3861025868       -4.2869031578        0.5972545477
 H          0.4512944918       -1.9870661196        0.5611119747
 H         -0.4894241298        2.9146924975        0.2205052066
 H         -2.1344550448        4.7438813196        0.0851919480
 H         -4.5398358197        4.2145059093       -0.2141796222
 H         -5.2629236260        1.8526393438       -0.3748255395
 H         -1.7793088847        0.5437815997       -2.4323329561
 H         -0.5296895152        0.5048067506       -4.5525943920
 H          1.9343538863        0.2683248846       -4.5204065948
 H          3.1227254075        0.0838156393       -2.3864496666
 H          4.2366412572        1.5964263547        0.3094548838
 H          6.5590413356        0.7529720134        0.2895541314
 H          6.9964908468       -1.6495580104       -0.0509645825
 H          5.1141255642       -3.2100911539       -0.3830349564
 H          2.7948495355       -2.3653540655       -0.3629288323
 H          3.2279084759        0.3107016651        2.3693629898
 H          2.1372596331        0.7940505842        4.5012989705
 H         -0.3169929406        1.1033163053        4.6037442787
 H         -1.6577619988        0.8827318668        2.5454371482
