  121
       -189.67278179
 C         -8.7091493836       -0.4190585410        1.4031233221
 C         -8.7847816917       -1.6990526498        1.9273454255
 C         -7.8823908820       -2.6700357629        1.5344875127
 C         -6.9010310341       -2.3660355553        0.5949556186
 N         -5.9776814498       -3.3397614217        0.1931044305
 C         -6.2738006899       -4.6333519812       -0.1897317828
 C         -7.5070109845       -5.2492295220       -0.3485314587
 C         -7.5223701458       -6.5624912452       -0.7788595930
 C         -6.3439464585       -7.2515640215       -1.0557275416
 C         -5.1147392343       -6.6361801889       -0.9245585972
 C         -5.0740195626       -5.3172156207       -0.4940535930
 C         -4.0047260991       -4.3827808725       -0.2748908921
 C         -2.6264426515       -4.4775940708       -0.3794462864
 C         -1.8450197945       -3.3673281849       -0.0813350151
 C         -0.3823798754       -3.4236060972       -0.1723701933
 C          0.3249142267       -2.3243853920       -0.6871025963
 C          1.6999955522       -2.2975271116       -0.7369529378
 C          2.3981306344       -3.3896373989       -0.2347978779
 C          1.7028521602       -4.5345982935        0.2289743568
 C          0.3176561039       -4.5459363022        0.2578572981
 C          2.7078288247       -5.4840182145        0.6147531908
 C          2.6560818510       -6.7679176421        1.1390015234
 C          3.8415804669       -7.4080757824        1.4440072686
 C          5.0679363804       -6.7753539695        1.2490319598
 C          5.1455180620       -5.4984436744        0.7256383951
 C          3.9606412134       -4.8601900644        0.3867740748
 N          3.7564351906       -3.5971292667       -0.1331519227
 C          4.7270819253       -2.6293980785       -0.3937441640
 C          5.9244371209       -2.9227439209       -1.0818089075
 C          6.8434913842       -1.9452364788       -1.3325210617
 C          6.6382131860       -0.5913395347       -0.9468717892
 C          7.4669928472        0.4858261893       -1.3299059693
 C          8.7766403053        0.3451443046       -1.8749505652
 C          9.5261751403        1.4553621278       -2.1345660350
 C          9.0075447732        2.7376294450       -1.8693240127
 C          7.7215984050        2.8040215981       -1.3586282236
 N          6.9948870884        1.7446913971       -1.1283232880
 C          5.4371108815       -0.3268972825       -0.2060965007
 N          5.1304891501        0.9605308264        0.2586208134
 C          5.7276612881        1.6329507905        1.3094583333
 C          6.9243696518        1.3649142323        1.9521271434
 C          7.3007342691        2.2028681463        2.9868249939
 C          6.5026705471        3.2750782510        3.3765915484
 C          5.2974310764        3.5353577897        2.7492211928
 C          4.8985490093        2.7082641217        1.7099008141
 C          3.7305266628        2.6600078967        0.8677334844
 C          2.5463498180        3.3736597775        0.8164851515
 C          1.5791759941        3.0288745419       -0.1287435991
 C          0.2761537526        3.6977958028       -0.1611835771
 C          0.1476112307        5.0524931302        0.1849132843
 C         -1.0672490998        5.7042818076        0.1703771532
 C         -2.1918840224        4.9863371231       -0.2154676406
 C         -2.0896902836        3.6161379841       -0.5528405106
 C         -0.8617735485        2.9790920614       -0.5208729487
 C         -3.4173876889        3.1768786410       -0.8826514855
 C         -3.9417023894        1.9738148608       -1.3360949220
 C         -5.2888902276        1.9118576402       -1.6325863253
 C         -6.1108171551        3.0255989696       -1.4772639807
 C         -5.6136948986        4.2307654982       -1.0188385041
 C         -4.2615226337        4.2991429904       -0.7162988650
 N         -3.5082713581        5.3813838229       -0.3055423889
 C         -4.0057884519        6.6620736323       -0.0215298381
 C         -5.0837146573        6.8126128693        0.8461131861
 C         -5.5749696201        8.0747498895        1.1234957771
 C         -4.9926166031        9.1924885292        0.5489327151
 C         -3.9175865694        9.0441198006       -0.3117601970
 C         -3.4255871876        7.7851796222       -0.6032335020
 C          1.8515195919        2.0056907373       -1.0553056024
 C          3.0172669640        1.2762541841       -1.0145301849
 C          3.9383524991        1.5736224892       -0.0177840802
 C          4.5186874737       -1.3182433037        0.0416025734
 C         -2.4650498666       -2.1798073087        0.3382271184
 C         -3.8330628209       -2.0682003152        0.4639646413
 C         -4.6093958643       -3.1728982256        0.1388292800
 C         -6.8331426696       -1.0816858368        0.0634138986
 C         -7.7287929297       -0.1125914090        0.4740998214
 H         -9.4112247753        0.3373615785        1.7193736370
 H         -9.5444914376       -1.9411270741        2.6557069778
 H         -7.9209699441       -3.6599217377        1.9640158340
 H         -8.4273471940       -4.7187705928       -0.1564422060
 H         -8.4701144017       -7.0641423531       -0.9072783823
 H         -6.3979567654       -8.2775367128       -1.3876566634
 H         -4.2018062478       -7.1634131348       -1.1570932400
 H         -2.1672580101       -5.3976743792       -0.7072812822
 H         -0.2308692295       -1.4844500059       -1.0759399233
 H          2.2142759480       -1.4510200817       -1.1604863262
 H         -0.2112583202       -5.4039166955        0.6443770066
 H          1.7054204258       -7.2506611564        1.3093888555
 H          3.8223163704       -8.4076531034        1.8518656905
 H          5.9772355026       -7.2917902531        1.5184590266
 H          6.0992669667       -5.0096822230        0.6024638131
 H          6.0893869044       -3.9261019866       -1.4443019988
 H          7.7354238994       -2.1981183683       -1.8839129110
 H          9.1809628770       -0.6431527876       -2.0253580054
 H         10.5250712831        1.3571545400       -2.5357688332
 H          9.5681397886        3.6311253753       -2.0857536260
 H          7.2433268321        3.7555456070       -1.1588231596
 H          7.5427284881        0.5346091709        1.6477628561
 H          8.2318139116        2.0219776956        3.5026593862
 H          6.8311917619        3.9099753581        4.1859640641
 H          4.6785817826        4.3633498263        3.0610836256
 H          2.3583834497        4.1625034557        1.5286471284
 H          1.0329189192        5.6097806703        0.4508887947
 H         -1.1377026603        6.7434429303        0.4541913354
 H         -0.7977678225        1.9261677563       -0.7465402763
 H         -3.3046820038        1.1116851230       -1.4664040859
 H         -5.7142906627        0.9948152024       -2.0116605300
 H         -7.1576932733        2.9499700520       -1.7329048556
 H         -6.2537348636        5.0946985158       -0.9219347101
 H         -5.5199544972        5.9393111066        1.3082541463
 H         -6.4109098840        8.1857483918        1.7978891519
 H         -5.3760057038       10.1766505016        0.7710440893
 H         -3.4640405617        9.9124452067       -0.7659236822
 H         -2.6023824697        7.6630074105       -1.2913364133
 H          1.1312291022        1.8010033928       -1.8324004793
 H          3.2241679147        0.5043053619       -1.7398299156
 H          3.6413933656       -1.0853092869        0.6274139585
 H         -1.8449931306       -1.3363232133        0.6034756671
 H         -4.2787497218       -1.1522086621        0.8210282125
 H         -6.0815277663       -0.8555027277       -0.6763031480
 H         -7.6596585798        0.8836682726        0.0633644026
