  121
       -189.67278179
 C         -8.7091493836       -0.4190585410        1.4031233221
 C         -8.7847816917       -1.6990526498        1.9273454255
 C         -7.8823908820       -2.6700357629        1.5344875127
 C         -6.9010310341       -2.3660355553        0.5949556186
 N         -5.9776814498       -3.3397614217        0.1931044305
 C         -6.2738006899       -4.6333519812       -0.1897317828
 C         -7.5070109845       -5.2492295220       -0.3485314587
 C         -7.5223701458       -6.5624912452       -0.7788595930
 C         -6.3439464585       -7.2515640215       -1.0557275416
 C         -5.1147392343       -6.6361801889       -0.9245585972
 C         -5.0740195626       -5.3172156207       -0.4940535930
 C         -4.0047260991       -4.3827808725       -0.2748908921
 C         -2.6264426515       -4.4775940708       -0.3794462864
 C         -1.8450197945       -3.3673281849       -0.0813350151
 C         -0.3823798754       -3.4236060972       -0.1723701933
 C          0.3249142267       -2.3243853920       -0.6871025963
 C          1.6999955522       -2.2975271116       -0.7369529378
 C          2.3981306344       -3.3896373989       -0.2347978779
 C          1.7028521602       -4.5345982935        0.2289743568
 C          0.3176561039       -4.5459363022        0.2578572981
 C          2.7078288247       -5.4840182145        0.6147531908
 C          2.6560818510       -6.7679176421        1.1390015234
 C          3.8415804669       -7.4080757824        1.4440072686
 C          5.0679363804       -6.7753539695        1.2490319598
 C          5.1455180620       -5.4984436744        0.7256383951
 C          3.9606412134       -4.8601900644        0.3867740748
 N          3.7564351906       -3.5971292667       -0.1331519227
 C          4.7270819253       -2.6293980785       -0.3937441640
 C          5.9244371209       -2.9227439209       -1.0818089075
 C          6.8434913842       -1.9452364788       -1.3325210617
 C          6.6382131860       -0.5913395347       -0.9468717892
 C          7.4669928472        0.4858261893       -1.3299059693
 C          8.7766403053        0.3451443046       -1.8749505652
 C          9.5261751403        1.4553621278       -2.1345660350
 C          9.0075447732        2.7376294450       -1.8693240127
 C          7.7215984050        2.8040215981       -1.3586282236
 N          6.9948870884        1.7446913971       -1.1283232880
 C          5.4371108815       -0.3268972825       -0.2060965007
 N          5.1304891501        0.9605308264        0.2586208134
 C          5.7276612881        1.6329507905        1.3094583333
 C          6.9243696518        1.3649142323        1.9521271434
 C          7.3007342691        2.2028681463        2.9868249939
 C          6.5026705471        3.2750782510        3.3765915484
 C          5.2974310764        3.5353577897        2.7492211928
 C          4.8985490093        2.7082641217        1.7099008141
 C          3.7305266628        2.6600078967        0.8677334844
 C          2.5463498180        3.3736597775        0.8164851515
 C          1.5791759941        3.0288745419       -0.1287435991
 C          0.2761537526        3.6977958028       -0.1611835771
 C          0.1476112307        5.0524931302        0.1849132843
 C         -1.0672490998        5.7042818076        0.1703771532
 C         -2.1918840224        4.9863371231       -0.2154676406
 C         -2.0896902836        3.6161379841       -0.5528405106
 C         -0.8617735485        2.9790920614       -0.5208729487
 C         -3.4173876889        3.1768786410       -0.8826514855
 C         -3.9417023894        1.9738148608       -1.3360949220
 C         -5.2888902276        1.9118576402       -1.6325863253
 C         -6.1108171551        3.0255989696       -1.4772639807
 C         -5.6136948986        4.2307654982       -1.0188385041
 C         -4.2615226337        4.2991429904       -0.7162988650
 N         -3.5082713581        5.3813838229       -0.3055423889
 C         -4.0057884519        6.6620736323       -0.0215298381
 C         -5.0837146573        6.8126128693        0.8461131861
 C         -5.5749696201        8.0747498895        1.1234957771
 C         -4.9926166031        9.1924885292        0.5489327151
 C         -3.9175865694        9.0441198006       -0.3117601970
 C         -3.4255871876        7.7851796222       -0.6032335020
 C          1.8515195919        2.0056907373       -1.0553056024
 C          3.0172669640        1.2762541841       -1.0145301849
 C          3.9383524991        1.5736224892       -0.0177840802
 C          4.5186874737       -1.3182433037        0.0416025734
 C         -2.4650498666       -2.1798073087        0.3382271184
 C         -3.8330628209       -2.0682003152        0.4639646413
 C         -4.6093958643       -3.1728982256        0.1388292800
 C         -6.8331426696       -1.0816858368        0.0634138986
 C         -7.7287929297       -0.1125914090        0.4740998214
 H         -9.4112247753        0.3373615785        1.7193736370
 H         -9.5444914376       -1.9411270741        2.6557069778
 H         -7.9209699441       -3.6599217377        1.9640158340
 H         -8.4273471940       -4.7187705928       -0.1564422060
 H         -8.4701144017       -7.0641423531       -0.9072783823
 H         -6.3979567654       -8.2775367128       -1.3876566634
 H         -4.2018062478       -7.1634131348       -1.1570932400
 H         -2.1672580101       -5.3976743792       -0.7072812822
 H         -0.2308692295       -1.4844500059       -1.0759399233
 H          2.2142759480       -1.4510200817       -1.1604863262
 H         -0.2112583202       -5.4039166955        0.6443770066
 H          1.7054204258       -7.2506611564        1.3093888555
 H          3.8223163704       -8.4076531034        1.8518656905
 H          5.9772355026       -7.2917902531        1.5184590266
 H          6.0992669667       -5.0096822230        0.6024638131
 H          6.0893869044       -3.9261019866       -1.4443019988
 H          7.7354238994       -2.1981183683       -1.8839129110
 H          9.1809628770       -0.6431527876       -2.0253580054
 H         10.5250712831        1.3571545400       -2.5357688332
 H          9.5681397886        3.6311253753       -2.0857536260
 H          7.2433268321        3.7555456070       -1.1588231596
 H          7.5427284881        0.5346091709        1.6477628561
 H          8.2318139116        2.0219776956        3.5026593862
 H          6.8311917619        3.9099753581        4.1859640641
 H          4.6785817826        4.3633498263        3.0610836256
 H          2.3583834497        4.1625034557        1.5286471284
 H          1.0329189192        5.6097806703        0.4508887947
 H         -1.1377026603        6.7434429303        0.4541913354
 H         -0.7977678225        1.9261677563       -0.7465402763
 H         -3.3046820038        1.1116851230       -1.4664040859
 H         -5.7142906627        0.9948152024       -2.0116605300
 H         -7.1576932733        2.9499700520       -1.7329048556
 H         -6.2537348636        5.0946985158       -0.9219347101
 H         -5.5199544972        5.9393111066        1.3082541463
 H         -6.4109098840        8.1857483918        1.7978891519
 H         -5.3760057038       10.1766505016        0.7710440893
 H         -3.4640405617        9.9124452067       -0.7659236822
 H         -2.6023824697        7.6630074105       -1.2913364133
 H          1.1312291022        1.8010033928       -1.8324004793
 H          3.2241679147        0.5043053619       -1.7398299156
 H          3.6413933656       -1.0853092869        0.6274139585
 H         -1.8449931306       -1.3363232133        0.6034756671
 H         -4.2787497218       -1.1522086621        0.8210282125
 H         -6.0815277663       -0.8555027277       -0.6763031480
 H         -7.6596585798        0.8836682726        0.0633644026
  121
       -189.67025529
 C         -7.5820040069        1.3112479243        2.8057838749
 C         -8.0175963442       -0.0035183367        2.8253612224
 C         -7.3468145701       -0.9733264612        2.1034877624
 C         -6.2315541044       -0.6301842376        1.3423850382
 N         -5.5708752428       -1.6070217820        0.5872584335
 C         -6.1863312073       -2.5545736236       -0.2083494876
 C         -7.5265309929       -2.7025272130       -0.5367770530
 C         -7.8739087979       -3.7283620225       -1.3955551935
 C         -6.9163292317       -4.5881928698       -1.9278411265
 C         -5.5771382923       -4.4266652581       -1.6318810294
 C         -5.2047937056       -3.4004079393       -0.7746786343
 C         -3.9343440781       -2.9200509749       -0.3079105771
 C         -2.6284249535       -3.3288675601       -0.5334626466
 C         -1.5923931066       -2.5891711553        0.0179412061
 C         -0.1764651074       -2.8882552540       -0.2369042559
 C          0.6201157258       -1.8463874133       -0.7380343168
 C          1.9805532748       -1.9717190539       -0.8822278973
 C          2.5752205202       -3.1515662035       -0.4512472646
 C          1.7782499513       -4.2561148404       -0.0530971511
 C          0.3996266866       -4.1215718137        0.0441976765
 C          2.6990565172       -5.3171120814        0.2426718624
 C          2.5338501967       -6.6283832927        0.6655922753
 C          3.6579812923       -7.3911292443        0.9208776509
 C          4.9355730858       -6.8534328983        0.7795348201
 C          5.1262023481       -5.5503399783        0.3551289084
 C          4.0053190411       -4.7883202065        0.0604702695
 N          3.9131164160       -3.4731941372       -0.3609770267
 C          4.9319671703       -2.5367473749       -0.4884534738
 C          6.1923280126       -2.8127975370       -1.0731125064
 C          7.1268901457       -1.8290448661       -1.1798085030
 C          6.9030388839       -0.4749461741       -0.7731183677
 C          7.9056155792        0.4883476355       -1.0303482727
 C          7.7189311111        1.9001255247       -0.9657775052
 C          8.7614271087        2.7443504650       -1.2253205597
 C         10.0172111435        2.2219310665       -1.5736166113
 C         10.1173477490        0.8385068752       -1.6588998765
 N          9.1329226337        0.0223175211       -1.4049162560
 C          5.6286952943       -0.2229121827       -0.1647005831
 N          5.1927390872        1.0338402230        0.3101901803
 C          5.5638110230        1.6591191737        1.4851326646
 C          6.7252529951        1.5036515355        2.2234948041
 C          6.8650686039        2.2676739159        3.3678152415
 C          5.8734582305        3.1597703112        3.7686168996
 C          4.7067916687        3.3081580766        3.0411682608
 C          4.5410464393        2.5532087415        1.8889457026
 C          3.4847285800        2.4375006114        0.9161732907
 C          2.1981830283        2.9437752208        0.8090682594
 C          1.4017920225        2.5619734596       -0.2692437876
 C         -0.0181407026        2.9223332842       -0.3444086267
 C         -0.4962436061        4.1597763238        0.1131327187
 C         -1.8343960528        4.4939852182        0.0645740028
 C         -2.7285482311        3.5601615624       -0.4446640840
 C         -2.2667175994        2.3132750145       -0.9251456290
 C         -0.9210732627        2.0012177837       -0.8694968674
 C         -3.4185854001        1.6097324674       -1.4174632457
 C         -3.6061707895        0.3433639726       -1.9551657554
 C         -4.8858811285       -0.0440773666       -2.3013024283
 C         -5.9690789479        0.8099245114       -2.1085353846
 C         -5.8076453211        2.0749385599       -1.5743407927
 C         -4.5226430040        2.4754085024       -1.2344236228
 N         -4.0913394814        3.6448113587       -0.6359590416
 C         -4.9169508479        4.6901795267       -0.2009223297
 C         -4.8199899697        5.1505882994        1.1097101133
 C         -5.6428311090        6.1723144428        1.5455274491
 C         -6.5710466650        6.7357347663        0.6854449663
 C         -6.6687032539        6.2786247107       -0.6184259047
 C         -5.8440851851        5.2630137308       -1.0661153072
 C          1.9548175446        1.7659281106       -1.2891847929
 C          3.2235124749        1.2427998248       -1.1965786316
 C          3.9570109589        1.5180506154       -0.0497212223
 C          4.7123159136       -1.2360559974       -0.0178427120
 C         -1.8814981205       -1.4836586530        0.8330632025
 C         -3.1727772204       -1.0978523732        1.1163798779
 C         -4.2083342726       -1.8000131151        0.5133208648
 C         -5.7846617977        0.6880645532        1.3412133530
 C         -6.4603612142        1.6504585869        2.0675941293
 H         -8.1117897005        2.0666807686        3.3659807583
 H         -8.8826632483       -0.2779805454        3.4105853321
 H         -7.6733009131       -2.0018201034        2.1388404523
 H         -8.2760907060       -2.0287719353       -0.1508616182
 H         -8.9113063408       -3.8631638647       -1.6634886991
 H         -7.2280724049       -5.3806444510       -2.5913897579
 H         -4.8306382446       -5.0765784139       -2.0630499654
 H         -2.4175115665       -4.1843521581       -1.1576520002
 H          0.1402744687       -0.9249245453       -1.0249381415
 H          2.5581954048       -1.1703462703       -1.3072545468
 H         -0.2116634762       -4.9428997647        0.3873730788
 H          1.5438386530       -7.0383853721        0.7971324403
 H          3.5488013709       -8.4140001183        1.2487265761
 H          5.7954123783       -7.4636650072        1.0113344389
 H          6.1201494507       -5.1401006025        0.2765110984
 H          6.3919942481       -3.7959868075       -1.4700214999
 H          8.0855500196       -2.0351878182       -1.6287321747
 H          6.7385103105        2.2942816335       -0.7616699401
 H          8.6189647636        3.8152803212       -1.1803233813
 H         10.8637629015        2.8576635383       -1.7716727439
 H         11.0546490176        0.3681294357       -1.9334103923
 H          7.4928429800        0.8151815877        1.9065864149
 H          7.7621419387        2.1730753304        3.9611401441
 H          6.0213853248        3.7440381488        4.6645998260
 H          3.9401363251        3.9987933969        3.3592725497
 H          1.8015249866        3.5859070536        1.5806647714
 H          0.2099190658        4.8851694130        0.4885785434
 H         -2.1711939154        5.4639178989        0.3988672197
 H         -0.5837979545        1.0395512944       -1.2188103973
 H         -2.7709393917       -0.3276376784       -2.0839665174
 H         -5.0555540958       -1.0269026210       -2.7147898554
 H         -6.9595473358        0.4720537541       -2.3748343877
 H         -6.6588320678        2.7159811335       -1.4042667794
 H         -4.1067529006        4.6951968060        1.7812471864
 H         -5.5638626025        6.5240291243        2.5635401642
 H         -7.2149783013        7.5302658339        1.0301223615
 H         -7.3860326525        6.7201523170       -1.2939324382
 H         -5.9016319627        4.9187165259       -2.0878232465
 H          1.3670831762        1.5677746821       -2.1722856236
 H          3.6471902881        0.6403588385       -1.9865087184
 H          3.8010446237       -1.0249292323        0.5214101690
 H         -1.0582965423       -0.9364018327        1.2684631496
 H         -3.3618498374       -0.2740014828        1.7859685455
 H         -4.9249780405        0.9536303079        0.7510705736
 H         -6.1152017182        2.6742434112        2.0470054258
  121
       -189.66926828
 C         -8.3466262803        0.3530586948        2.0342782197
 C         -8.4173137113       -0.9457365392        2.5117397280
 C         -7.5950016316       -1.9275523275        1.9913078453
 C         -6.6984171357       -1.6145386124        0.9724797547
 N         -5.8676519670       -2.6076198778        0.4349982721
 C         -6.2709411140       -3.8716390700        0.0477798600
 C         -7.5472185234       -4.4125269924       -0.0158246063
 C         -7.6766346170       -5.7104081107       -0.4739346069
 C         -6.5690821669       -6.4563829425       -0.8693715720
 C         -5.2989900657       -5.9144167578       -0.8337794040
 C         -5.1449309659       -4.6121096538       -0.3795064196
 C         -4.0083618282       -3.7444612824       -0.2336070092
 C         -2.6527370879       -3.9190085498       -0.4509340324
 C         -1.7801898115       -2.8649585489       -0.1930540749
 C         -0.3356600022       -3.0161569396       -0.3679019566
 C          0.4316410300       -1.9400292870       -0.8518800649
 C          1.8035892965       -1.9977236686       -0.9339770808
 C          2.4453451039       -3.1502800103       -0.4915737802
 C          1.6841016613       -4.2813300099       -0.0923716696
 C          0.3034944824       -4.2079422252       -0.0306919388
 C          2.6331659041       -5.3102666900        0.2229008523
 C          2.5040629768       -6.6213202013        0.6587562414
 C          3.6493367693       -7.3477714349        0.9248323927
 C          4.9100696390       -6.7729082451        0.7822401300
 C          5.0633468824       -5.4685937717        0.3455042658
 C          3.9213036869       -4.7446632248        0.0376890732
 N          3.7901758465       -3.4358844487       -0.3984014678
 C          4.8051510275       -2.5004883945       -0.5536037675
 C          6.0553291012       -2.8028991556       -1.1489165615
 C          7.0145493097       -1.8434048080       -1.2532692400
 C          6.8257914773       -0.4926241969       -0.8264043735
 C          7.8474239327        0.4534784687       -1.0821723917
 C          7.6764740203        1.8674164374       -1.0482495372
 C          8.7352158492        2.6936532796       -1.3033257805
 C          9.9895793245        2.1484875450       -1.6166236250
 C         10.0722582477        0.7627227235       -1.6782828485
 N          9.0724822264       -0.0366196895       -1.4280679717
 C          5.5624617653       -0.2149809935       -0.2057732346
 N          5.1920918034        1.0408615892        0.3127890798
 C          5.6728730251        1.6580693979        1.4510868795
 C          6.8597717762        1.4353503879        2.1297491829
 C          7.1118940914        2.2049528986        3.2507400804
 C          6.2055026647        3.1681499276        3.6879056872
 C          5.0141468552        3.3849288783        3.0206252070
 C          4.7366125153        2.6259850144        1.8926530224
 C          3.6244947644        2.5695418883        0.9798825217
 C          2.3832916184        3.1833297436        0.9187619447
 C          1.5098148550        2.8540594216       -0.1157771964
 C          0.1392401651        3.3707704280       -0.1621183163
 C         -0.1786627319        4.6578912242        0.2975186169
 C         -1.4633843576        5.1584647578        0.2526054714
 C         -2.4624300822        4.3548927230       -0.2818078065
 C         -2.1691446238        3.0446885050       -0.7262751941
 C         -0.8763761395        2.5578943351       -0.6595177397
 C         -3.4036975180        2.4873103229       -1.2029277432
 C         -3.7362257284        1.2812556235       -1.8045689607
 C         -5.0379417282        1.0919633834       -2.2265601587
 C         -6.0002303430        2.0859795786       -2.0537635312
 C         -5.6938217405        3.2893699364       -1.4467574073
 C         -4.3893313588        3.4839841287       -1.0152041797
 N         -3.8085714379        4.6004361797       -0.4472362847
 C         -4.4764092155        5.7869942263       -0.1105165789
 C         -5.6300623627        5.7401762592        0.6668409432
 C         -6.2884731409        6.9105374611        0.9956586014
 C         -5.8000857962        8.1319416666        0.5617318232
 C         -4.6505358942        8.1801542271       -0.2095034628
 C         -3.9901827719        7.0143785976       -0.5508969482
 C          1.9366433828        1.9791152234       -1.1319454267
 C          3.1577473109        1.3494191346       -1.0838412014
 C          3.9730528435        1.5976366997        0.0125548741
 C          4.6109122376       -1.1993404351       -0.0786603570
 C         -2.2951049761       -1.6485992758        0.2885044324
 C         -3.6383308397       -1.4606514853        0.5297125857
 C         -4.5047077194       -2.5128911842        0.2583130850
 C         -6.6278340369       -0.3098126371        0.4949533465
 C         -7.4469374140        0.6669181404        1.0294627289
 H         -8.9892559168        1.1162571582        2.4462744227
 H         -9.1116531498       -1.1949912936        3.3003274848
 H         -7.6314535951       -2.9343783403        2.3798464355
 H         -8.4147456729       -3.8367550731        0.2690069911
 H         -8.6596446331       -6.1537660645       -0.5306303220
 H         -6.7110903347       -7.4682032089       -1.2182063296
 H         -4.4421610653       -6.4854656352       -1.1581275580
 H         -2.2803313782       -4.8567989364       -0.8336037055
 H         -0.0757808763       -1.0497951583       -1.1894379951
 H          2.3572811661       -1.1662994601       -1.3345166109
 H         -0.2684369364       -5.0527606832        0.3214758059
 H          1.5260383942       -7.0584416044        0.7925025096
 H          3.5696654831       -8.3699762147        1.2630195895
 H          5.7872122774       -7.3538149066        1.0240856584
 H          6.0450863034       -5.0295739585        0.2695532345
 H          6.2245461303       -3.7870503927       -1.5572326766
 H          7.9642381737       -2.0686326390       -1.7119096875
 H          6.6965798788        2.2787956965       -0.8770388543
 H          8.6052335626        3.7669619904       -1.2830128056
 H         10.8486054603        2.7693813853       -1.8080533105
 H         11.0073595166        0.2751257411       -1.9291005271
 H          7.5615837856        0.6913404678        1.7872046589
 H          8.0312051161        2.0578535516        3.7975318796
 H          6.4399016871        3.7527325277        4.5650411225
 H          4.3127134974        4.1293954684        3.3666745298
 H          2.0820528023        3.8748844544        1.6905682596
 H          0.6123498178        5.2863989731        0.6779252153
 H         -1.6805998920        6.1491159774        0.6225768236
 H         -0.6668255109        1.5475949421       -0.9729289047
 H         -2.9914854217        0.5127716508       -1.9459408779
 H         -5.3139376395        0.1674619883       -2.7133110824
 H         -7.0065390971        1.9118540983       -2.4052151089
 H         -6.4411024279        4.0607392695       -1.3349714423
 H         -5.9930203762        4.7868835729        1.0221024163
 H         -7.1824170068        6.8686706325        1.5999817071
 H         -6.3145717973        9.0439234505        0.8231748904
 H         -4.2684994331        9.1298572064       -0.5531619132
 H         -3.1058343283        7.0450075118       -1.1699816672
 H          1.2911124599        1.8102713278       -1.9799678760
 H          3.4852162163        0.6886998396       -1.8725037930
 H          3.7024173745       -0.9701665807        0.4579394939
 H         -1.6085527195       -0.8473481159        0.5164980727
 H         -3.9968821871       -0.5263613857        0.9329083727
 H         -5.9453812457       -0.0672817932       -0.3035482406
 H         -7.3838552464        1.6746596136        0.6456108299
