96
 energy: -156.781131677184 gnorm: 0.000123374039 xtb: 6.7.1 (edcfbbe)
C           -9.81564682542624       -4.80130302147956       -0.03734558493502
C          -10.25001315870310       -3.48455845083194       -0.04594514188116
C           -9.33247508557625       -2.45171377477986       -0.03492432759883
C           -7.96599873610571       -2.72930456793919       -0.01515310566905
C           -6.99294512065540       -1.63726025070210       -0.00576408534910
N           -7.45989624207929       -0.38235035569734        0.00303985432718
C           -6.53844319383435        0.58900413350558        0.00326757353233
C           -7.00215267624640        1.97599953357939        0.00571564181934
C           -8.36616535695907        2.26138352922075        0.05698378102866
C           -8.80103077009942        3.57282174711228        0.05770758732404
C           -7.88274549553593        4.61048618670723        0.00631312346538
C           -6.52469262523838        4.33334994333000       -0.04474319165022
C           -6.08353453183565        3.02456505642443       -0.04491469238303
N           -5.24286506371562        0.35923811604668        0.00000554527735
C           -4.82782561724917       -0.92202575934320       -0.00309391306543
C           -3.42878727542816       -1.20559220196110       -0.00264272107936
C           -2.96333427568287       -2.53660162796686       -0.01263863282728
C           -1.62355977243590       -2.82856034138262       -0.01333809746963
C           -0.69631437672603       -1.77966144986601       -0.00381884865772
C           -1.16381315537795       -0.44327534851229        0.00683327577153
C           -2.49321326480592       -0.14710174843221        0.00770303238453
C            0.00976675509841        0.52742928543118        0.01554454036670
C           -0.00310748475679        1.36048600666988        1.26982498310132
C            0.05242720179090        0.74964562843461        2.51678261522620
C            0.02776671245661        1.49875569822856        3.67733995769013
C           -0.05559029464018        2.88412052773769        3.60819538680975
C           -0.11116156997978        3.51069118407385        2.38190977301396
C           -0.08457032991797        2.75232480374273        1.21072042196885
O           -0.14086351588632        3.44651982166209        0.04140648155104
C           -0.08474341573109        2.77309582885039       -1.14002888166297
C           -0.11129636580699        3.55202935110414       -2.29767022077968
C           -0.05560731833950        2.94721888260147       -3.53483724613812
C            0.02814048821742        1.56331910428291       -3.62839227934259
C            0.05302243048886        0.79382674180094       -2.48125281348637
C           -0.00298197587200        1.38256230438012       -1.22373246797822
C            1.18851535599191       -0.43406753668275        0.00687304791555
C            2.51606728087403       -0.12889571950001        0.00737632122137
C            3.45889685386364       -1.18100756583660       -0.00246763832000
C            4.85621748198464       -0.88879141216282       -0.00337447698075
N            5.74622588610142       -1.90021056215263       -0.00471528264588
C            7.02563107037253       -1.59121705211898       -0.00298327562329
C            8.00526519873475       -2.67738733294930       -0.00593221062432
C            7.58275234733458       -4.00671795847868        0.00117757135441
C            8.51153189975117       -5.02900436366191       -0.00296952050253
C            9.86763644061720       -4.73802048631812       -0.01416746520585
C           10.29401569889168       -3.41865907958838       -0.02131986592717
C            9.37011955541031       -2.39145748212277       -0.01727802496377
N            7.48496095440450       -0.33350419325643        0.00090598959464
C            6.55773959643965        0.63230998170228       -0.00199794726225
C            7.01322551246144        2.02202636738420       -0.00426208199934
C            6.08802943048643        3.06500311832242       -0.04993268921913
C            6.52133955658873        4.37639691200831       -0.05393994832919
C            7.87802224214801        4.66170179870049       -0.01221231647507
C            8.80283102784358        3.62959668115784        0.03393186438085
C            8.37581795593634        2.31559602051904        0.03750731148538
N            5.26353489055853        0.39486739769662       -0.00386165661249
C            3.00293976973565       -2.51532683110589       -0.01158919708483
C            1.66525934165402       -2.81681848679671       -0.01250697770269
C            0.73091489627548       -1.77428201589693       -0.00363108898588
N           -5.71173533616961       -1.93880459610749       -0.00789622350184
C           -7.53542982024618       -4.05605564334479       -0.00644235718439
C           -8.45788699454926       -5.08399884124671       -0.01757454711755
H          -10.53441238501326       -5.60720167232573       -0.04602790428161
H          -11.30707514607342       -3.26373246554051       -0.06127870217759
H           -9.65301687920148       -1.42146994938836       -0.04240935318039
H           -9.06714861946669        1.44211485217627        0.09670335503711
H           -9.85857551928327        3.78800352361788        0.09769082868018
H           -8.22482711390431        5.63474657318296        0.00629471919293
H           -5.80901717319437        5.14115740914600       -0.08456035754986
H           -5.03036127150349        2.79206661663211       -0.08502475662030
H           -3.69923766540302       -3.32612284250866       -0.02031674626410
H           -1.28348661281320       -3.85321012936505       -0.02119608601608
H           -2.85777321798981        0.86889563301820        0.01629372713461
H            0.11483607967610       -0.32734587432414        2.56439212263527
H            0.07217531624703        1.00566343712544        4.63617477022237
H           -0.07605154834321        3.47237407585079        4.51258403651548
H           -0.17491773760679        4.58418223709000        2.29687848435863
H           -0.17512120268561        4.62385783115415       -2.19372032728095
H           -0.07659323296023        3.55128689114482       -4.42872461463089
H            0.07263555173599        1.08713457183581       -4.59570676028342
H            0.11582427112203       -0.28214500270417       -2.54797542734448
H            2.87276169644952        0.88985902150262        0.01537887965102
H            6.52415012610786       -4.21579585480840        0.01002715279110
H            8.17931109323425       -6.05663130148932        0.00252221338494
H           10.59132268349859       -5.53954729750964       -0.01759455225422
H           11.34979572351751       -3.19138133211083       -0.03006186106804
H            9.68437174604600       -1.35926372963009       -0.02366751663851
H            5.03604886828852        2.82610838854721       -0.08277947735180
H            5.80062200134532        5.17991898680598       -0.08978400732481
H            8.21393260694387        5.68800339022293       -0.01541007966356
H            9.85931411686288        3.85112854285891        0.06656461770123
H            9.08194298756552        1.50057337065423        0.07303177485687
H            3.74440652075793       -3.29963003957591       -0.01870159831456
H            1.33234721860342       -3.84381943307097       -0.02014139118182
H           -6.47563862940828       -4.25863437191674        0.00902660313105
H           -8.11940100532177       -6.10957139808599       -0.01098624165075
