96
 energy: -156.855239499377 gnorm: 0.000045493332 xtb: 6.7.1 (edcfbbe)
C           -9.81064460505102       -4.80179057990442        0.00902743028659
C          -10.25349640605482       -3.48769377337807        0.00495345700408
C           -9.34203110117322       -2.44935370001973        0.00229116399047
C           -7.97408740629910       -2.71936935467866        0.00382761587417
C           -7.00606973139576       -1.62234761826214        0.00080436413805
N           -7.47208875440172       -0.37581477420855       -0.00018793279336
C           -6.55656931935959        0.59014352888675       -0.00458822356421
C           -7.02016926174553        1.97797282557437       -0.00732656391394
C           -8.38494357567688        2.26331501487814        0.01084553143043
C           -8.81920010637287        3.57495273645219        0.00795378172683
C           -7.89893247427645        4.61209206224428       -0.01348760843141
C           -6.54032703391425        4.33501975069808       -0.03158820998581
C           -6.09991697132610        3.02550888788675       -0.02853287427748
N           -5.24394734961259        0.37070316606756       -0.00670181727629
C           -4.86610353260724       -0.90510065080362       -0.00393861413714
C           -3.43293706253846       -1.19468632563982       -0.00434363238819
C           -2.98750523297712       -2.51862595582707       -0.00823941420041
C           -1.63851463041007       -2.81737707624570       -0.00869140422316
C           -0.72522531084277       -1.77204276996960       -0.00510542767864
C           -1.17214649296473       -0.43992427809483       -0.00101464271045
C           -2.51269092974713       -0.14195733751768       -0.00054853238593
C            0.00082748483125        0.52093163049968        0.00226176070095
C           -0.00019050841639        1.36862589920450        1.25409829767169
C            0.00679324992448        0.75971184393379        2.50311180455575
C            0.00430669129129        1.51148554134769        3.66235668936367
C           -0.00553854470138        2.89595484363033        3.58542450953515
C           -0.01234298808329        3.51818822283400        2.35389297554731
C           -0.00970506634019        2.75769209987914        1.18657877833616
O           -0.01678305711475        3.45551144788620        0.01184564879503
C           -0.00973859192754        2.76537823473643       -1.16742756356592
C           -0.01252547935800        3.53347362032841       -2.32976308314459
C           -0.00571725537637        2.91929730931854       -3.56533552241407
C            0.00431042171005        1.53536753563593       -3.65128725012222
C            0.00691083544358        0.77604560852133       -2.49697647849345
C           -0.00010846180065        1.37678062545436       -1.24401039818655
C            1.17358541349194       -0.43991379628522       -0.00075433990380
C            2.51417372479077       -0.14208524393383        0.00013923566345
C            3.43432514225769       -1.19491125085647       -0.00318739785474
C            4.86754457847439       -0.90557743035695       -0.00228530664021
N            5.71298033012992       -1.93316517017806       -0.00295703499244
C            7.00735051670701       -1.62333301746807       -0.00157841851331
C            7.97511402635470       -2.72058277165609       -0.00228880928716
C            7.53591090471076       -4.04412049619406       -0.00144340625643
C            8.45197941701391       -5.07830754513332       -0.00224150101731
C            9.81119662947622       -4.80342668189076       -0.00387523386850
C           10.25434621001489       -3.48942408062992       -0.00471880031955
C            9.34311717018790       -2.45087479496550       -0.00393058759075
N            7.47365236607247       -0.37690789926528        0.00031258809451
C            6.55835408012279        0.58927115447949        0.00031182386179
C            7.02231077612061        1.97697812689459        0.00144125425856
C            6.10221815755918        3.02484834807915       -0.00381280269019
C            6.54295506735064        4.33424299456729       -0.00315086301255
C            7.90174737820409        4.61090113607472        0.00276088123898
C            8.82186799007928        3.57342679480900        0.00814676575010
C            8.38727640729871        2.26190674743822        0.00744501260476
N            5.24567431855341        0.37014224993578       -0.00087314336588
C            2.98878666678858       -2.51881884988948       -0.00721019190518
C            1.63977407892035       -2.81746298560611       -0.00813826199048
C            0.72657717491140       -1.77204331862684       -0.00489554025222
N           -5.71176857446031       -1.93248999212485       -0.00086090720656
C           -7.53518490128739       -4.04300075248327        0.00796819952936
C           -8.45148877221471       -5.07697651451922        0.01052998555678
H          -10.52489733138849       -5.61181105740348        0.01099899201601
H          -11.31202705138510       -3.27375012951274        0.00374888880491
H           -9.66803753799751       -1.42097950245635       -0.00117766718096
H           -9.08661650618640        1.44406131095623        0.02739346410799
H           -9.87719283792051        3.79099938622740        0.02208692692277
H           -8.24049904969246        5.63660038073025       -0.01584536979128
H           -5.82349243473616        5.14258516145976       -0.04806124281063
H           -5.04656691629948        2.79227359373919       -0.04265075336978
H           -3.72573855983682       -3.30504613239107       -0.01105349076569
H           -1.30412528860969       -3.84332187398930       -0.01176262707473
H           -2.87080974719579        0.87556906445294        0.00287923932562
H            0.01411311354826       -0.31933163491696        2.55586788273147
H            0.00973497259254        1.01957719801177        4.62294082379984
H           -0.00774145755293        3.49108782582226        4.48583297609228
H           -0.01980512450380        4.59340709051141        2.26485938586817
H           -0.02009591335177        4.60808740063490       -2.23373423552885
H           -0.00805339570079        3.52027954484269       -4.46184827376468
H            0.00976988097389        1.04969913170525       -4.61503081599494
H            0.01432523384468       -0.30261127796964       -2.55685715119457
H            2.87232329577194        0.87542754681894        0.00337218545702
H            6.47488850873732       -4.23896212669821       -0.00006254977240
H            8.10748753518276       -6.10184634102107       -0.00154850210937
H           10.52526840760923       -5.61360843025452       -0.00449044679887
H           11.31292432989344       -3.27571745579484       -0.00603024129656
H            9.66935635703858       -1.42256927714414       -0.00470908750636
H            5.04872301081887        2.79193529781014       -0.00849774334523
H            5.82623543120645        5.14205908350888       -0.00726910877056
H            8.24357272383103        5.63531797991810        0.00323887940959
H            9.88000303965060        3.78915254514468        0.01279696952915
H            9.08883811382362        1.44241133434880        0.01160016280324
H            3.72695462476484       -3.30530031610278       -0.00965573823494
H            1.30528523621701       -3.84337458429688       -0.01125115480716
H           -6.47420520394953       -4.23807659509696        0.00923805399621
H           -8.10722717816788       -6.10058834313700        0.01364955429823
