123
 energy: -185.117015732844 gnorm: 0.000057042110 xtb: 6.7.1 (edcfbbe)
C            5.77940469785252        2.51599374922505        0.66729846931759
C            5.48176730932092        1.59144487417383       -0.52689350160958
C            6.14106535722541        2.14122077554936       -1.80458042560484
C            3.97987859094425        1.53971308924752       -0.73976854659204
C            3.29094149970729        2.70781444643291       -1.02257465225288
C            1.91842373354900        2.74049988340496       -1.25476625394417
C            1.23450714657654        4.00507411535821       -1.55045915708001
C            0.15733749584198        4.04489974576232       -2.43407633474241
C           -0.46609976197634        5.24005504417266       -2.73678201571835
C           -0.02273130538847        6.42180547861353       -2.16879434645763
C            1.03884579730970        6.39540225305498       -1.28100876099019
C            1.65608422337682        5.19982118770225       -0.96936056475311
C            1.22771438391143        1.53241319172220       -1.21518881788856
C            1.88426062754168        0.35910245180858       -0.91833814588961
C            3.25949927549238        0.34317083987917       -0.66773462046545
N            3.89436010513961       -0.85203685581681       -0.36846709174930
C            3.09948259629118       -2.02204559515498       -0.25683585209829
C            2.93837347779397       -2.86300825642903       -1.35325946027177
C            2.06765038660233       -3.93579322864500       -1.27138836811944
C            1.38492536358986       -4.16451069669876       -0.09287234068100
S            0.01860737754490       -5.33205294459694       -0.05561971485592
O            0.03228591123219       -6.08742352465969        1.16653252475245
O           -0.02876368375705       -6.04011681821416       -1.30498020679102
C           -1.29805332313208       -4.11008320590444        0.02542447011947
C           -1.43470678622672       -3.23696595830772       -1.03845887180054
C           -2.29231939306899       -2.15946071475626       -0.92534985246553
C           -3.00195100831961       -1.96029675879441        0.25713873482487
N           -3.82795766944015       -0.81761068789736        0.39312407425599
C           -5.20562742708617       -0.95762607900738        0.30993440389390
C           -5.76204834528500       -2.21711051176642        0.07083126289042
C           -7.12582586531686       -2.38885227772820       -0.00509321838657
C           -7.98272371401671       -1.30161343223404        0.13779125977579
C           -9.43987539987057       -1.46680283443269        0.06084283048268
C          -10.23049864865436       -0.53483944960931       -0.60833388023458
C          -11.60163889694326       -0.69423545844675       -0.67908796812391
C          -12.20834394090034       -1.78536452821401       -0.07995486956004
C          -11.43311760700928       -2.71828767975387        0.58828768882085
C          -10.06155888883569       -2.56223797613795        0.65674692724343
C           -7.41700794209450       -0.04863579758135        0.34768616808350
C           -6.04856027148294        0.15067060234018        0.43648647926784
C           -5.51378109557633        1.55415839980080        0.65073002757089
C           -5.97426417291861        2.43837929255758       -0.52200785944213
C           -6.06961384227419        2.09755254918231        1.97958326141729
C           -3.99820904099411        1.57821790290217        0.71768816459781
C           -3.34701615723871        2.78463332017217        0.91741143809717
C           -1.96431387907704        2.88743578141683        1.04006076929906
C           -1.32598220125117        4.19018518059463        1.26282562887080
C           -1.83765990192434        5.34664594849125        0.67716990857019
C           -1.26736549442175        6.57923234851192        0.92897370350758
C           -0.16788003079673        6.68159611423877        1.76368687594246
C            0.36487367504745        5.53813643678922        2.33345500173116
C           -0.20811855577901        4.30537640320536        2.08704688816918
C           -1.22164462364495        1.71204059583506        0.97934321210790
C           -1.84181299274523        0.50194989299412        0.76114499013875
C           -3.22896424441838        0.41510234124345        0.61045072744173
C           -2.87975866257824       -2.86464247369522        1.30821382669464
C           -2.01658421857758       -3.94009878865299        1.19249180710225
C            1.57447891904589       -3.36455167567590        1.01895553757304
C            2.43994260752410       -2.28997501427958        0.94001504898033
C            5.26112135320207       -0.92501716657217       -0.15725604089281
C            5.84825348301892       -2.15651926861675        0.14348630945893
C            7.20438086702269       -2.26191912933093        0.35625003787260
C            8.02075392692084       -1.13814451258020        0.26876703940500
C            9.47055797768068       -1.23267069920714        0.48294918564392
C           10.35749387869063       -0.51775940914765       -0.31944786416466
C           11.72185400514548       -0.60939328765275       -0.11810852702818
C           12.22499596283003       -1.41377097285800        0.89059124489143
C           11.35338530801035       -2.12833311739805        1.69530351195120
C            9.98897761458231       -2.04071212549674        1.49279166988283
C            7.42336777405259        0.08348656235405       -0.02463747551279
C            6.06059089251012        0.21942896908983       -0.23378615966560
H            5.30238582411740        2.12692232417546        1.56499261109207
H            6.84830975256401        2.58290527034867        0.84972240667209
H            5.40201459782356        3.51832015435019        0.48475711203154
H            7.21743276983904        2.22153049271022       -1.68153147733362
H            5.93898291955148        1.47502393869673       -2.64124754130837
H            5.75311364611520        3.12584696196787       -2.05009636684627
H            3.83953373193824        3.63423952458676       -1.09216996889443
H           -0.17899180529245        3.13444352033255       -2.90788554946481
H           -1.29641211646636        5.25114094772867       -3.42842719742105
H           -0.50276143428502        7.35734655185028       -2.41509341922429
H            1.38646874192721        7.31184286928095       -0.82713876280628
H            2.46363090729484        5.19095421630314       -0.25229576896246
H            0.16365532414460        1.50976415537616       -1.39280295474875
H            1.32193452030491       -0.56227182612729       -0.88126552148380
H            3.47294697730078       -2.65139358275769       -2.26699465549425
H            1.89220795143813       -4.59181107913918       -2.10975053209049
H           -0.86774726437536       -3.41084169107645       -1.93971558412333
H           -2.40662185975561       -1.45523127287619       -1.73557235405936
H           -5.11441102938503       -3.06988438854256       -0.06487265501293
H           -7.52733113430470       -3.37109498572590       -0.20360760587147
H           -9.76265627481314        0.30840230149895       -1.09581810849290
H          -12.20047250418025        0.03415886335684       -1.20684706785420
H          -13.27992388007843       -1.90852550775055       -0.13438832450026
H          -11.90085848113188       -3.57028991155882        1.06032938945544
H           -9.46412610408965       -3.28468595260804        1.19379668814307
H           -8.08147544517274        0.79381695110487        0.46458244290224
H           -5.61539963502630        3.45696354802514       -0.40384462351298
H           -5.58586657929857        2.04325613759774       -1.45893278457940
H           -7.05844837054834        2.46609355545537       -0.58454371116137
H           -5.73721926341965        1.46919986647464        2.80376902945256
H           -5.72281520566544        3.11100568022519        2.16096004389688
H           -7.15594287765035        2.10585495112599        1.97194300569274
H           -3.93277501580491        3.68579020467635        1.01218976500462
H           -2.67940152260599        5.27753889049504        0.00389624865426
H           -1.68212174071929        7.46538239408999        0.47090347381280
H            0.27299659976116        7.64646733856435        1.96685342620232
H            1.22639232202110        5.60875109352996        2.98211704384999
H            0.19953822354044        3.42390128433974        2.55974868778118
H           -0.14790482926275        1.74341243301538        1.08128008109409
H           -1.24035176395821       -0.39379009133500        0.71390376749662
H           -3.44775563621226       -2.70613893239659        2.21257881786190
H           -1.87818426392453       -4.64709715433770        1.99553661023141
H            1.03391723338605       -3.58720234847256        1.92562327738771
H            2.59064893295088       -1.63565028963390        1.78530213016116
H            5.22902406409528       -3.03861985601737        0.20941555446520
H            7.63578559618907       -3.22822247010558        0.56966129005130
H            9.97337104833245        0.09641124142004       -1.12126070969210
H           12.39696374532097       -0.05344507999782       -0.75281131591283
H           13.29113410577958       -1.48403122048548        1.04824168104801
H           11.73967292766992       -2.75512177125115        2.48617418094916
H            9.31379563182750       -2.58758683828278        2.13493354351408
H            8.05405027301436        0.95850404710652       -0.06543210302424
