  123
       -185.11668330
 C          5.7949282034        2.3954945120        0.8682414649
 C          5.5798240429        1.5155745862       -0.3764270264
 C          6.3306248827        2.1063509107       -1.5832565479
 C          4.0961746335        1.4811664508       -0.6963770302
 C          3.4262606502        2.6662031196       -0.9550423754
 C          2.0672823166        2.7188674151       -1.2544168463
 C          1.3924924753        3.9994152245       -1.4988707835
 C          0.3368067891        4.0904049677       -2.4045268504
 C         -0.2916561182        5.2978592748       -2.6403540042
 C          0.1262165465        6.4421755354       -1.9836044029
 C          1.1699256408        6.3657788440       -1.0780016751
 C          1.7904351598        5.1568991604       -0.8316029380
 C          1.3713126413        1.5139682082       -1.3082659767
 C          2.0086983488        0.3235357647       -1.0422280401
 C          3.3718358922        0.2855090238       -0.7340974214
 N          3.9867143117       -0.9269391729       -0.4631583433
 C          3.1771430550       -2.0917724920       -0.4561020080
 C          2.8861702952       -2.7391474004       -1.6530606733
 C          1.9753247942       -3.7803620468       -1.6638789293
 C          1.3813486426       -4.1704956329       -0.4791560895
 S         -0.0555422165       -5.2461156017       -0.5216355809
 O         -0.0854502459       -6.0942491165        0.6378113102
 O         -0.1590117036       -5.8489283989       -1.8219243094
 C         -1.2948087467       -3.9560506077       -0.3376693379
 C         -1.4401932766       -3.0361322943       -1.3600326383
 C         -2.2782832208       -1.9511729073       -1.1841790330
 C         -2.9621004176       -1.7918406722        0.0192033751
 N         -3.8204963389       -0.6806986874        0.2027754450
 C         -5.1937029822       -0.8873842466        0.1854078307
 C         -5.7017454069       -2.1634312842       -0.0745545444
 C         -7.0572564318       -2.4026558169       -0.0789814661
 C         -7.9574686319       -1.3680036473        0.1566390753
 C         -9.4057876206       -1.6098064925        0.1651471780
 C        -10.2874427205       -0.7016410166       -0.4170451812
 C        -11.6497147006       -0.9356792095       -0.4065909477
 C        -12.1561439873       -2.0788126679        0.1886647586
 C        -11.2897336689       -2.9886305535        0.7713007414
 C         -9.9271587494       -2.7579765789        0.7582408948
 C         -7.4428130920       -0.0952784485        0.3775174250
 C         -6.0827578460        0.1708894730        0.3958426825
 C         -5.6075387496        1.5921798193        0.6296134104
 C         -6.1903044553        2.4927908189       -0.4740258964
 C         -6.0996743471        2.0561030031        2.0127920563
 C         -4.0941420516        1.6941159769        0.6019246170
 C         -3.4960124426        2.9275673324        0.8022351175
 C         -2.1161108835        3.0993973858        0.8553253459
 C         -1.5382977300        4.4269110987        1.0976352603
 C         -2.1235773195        5.5701657186        0.5571502286
 C         -1.6134731869        6.8239897721        0.8332023654
 C         -0.5047730286        6.9607692788        1.6505167876
 C          0.0995792731        5.8315502560        2.1759224033
 C         -0.4103261937        4.5771623204        1.9017793191
 C         -1.3177539968        1.9684983963        0.7154481560
 C         -1.8860597193        0.7335641298        0.4924018313
 C         -3.2732394751        0.5765316659        0.4177812741
 C         -2.8124719682       -2.7300452487        1.0374501601
 C         -1.9703787636       -3.8129515101        0.8584306218
 C          1.7084171978       -3.5749012485        0.7247048245
 C          2.6176530959       -2.5338638938        0.7396060156
 C          5.3301701760       -1.0138507502       -0.1411112344
 C          5.8946344373       -2.2642663345        0.1223162763
 C          7.2283849642       -2.3858407294        0.4404685805
 C          8.0456230986       -1.2602635758        0.4913866612
 C          9.4724169614       -1.3745614525        0.8204300086
 C         10.4254630770       -0.6243226432        0.1348226494
 C         11.7681405040       -0.7389930042        0.4425178395
 C         12.1826793479       -1.6018266342        1.4431595691
 C         11.2444898834       -2.3511774718        2.1331984663
 C          9.9019679076       -2.2406249524        1.8239255715
 C          7.4739050902       -0.0220633604        0.2169758470
 C          6.1322272302        0.1301463584       -0.0940041151
 H          5.2464526522        1.9828194213        1.7130503209
 H          6.8473042022        2.4420354514        1.1336890038
 H          5.4444651416        3.4088207844        0.6932054955
 H          7.3951904740        2.1795603565       -1.3790127805
 H          6.1904012810        1.4692008460       -2.4544894702
 H          5.9606384395        3.0995407699       -1.8225183899
 H          3.9805467706        3.5918066439       -0.9459482014
 H          0.0196794141        3.2117080275       -2.9465367819
 H         -1.1069905198        5.3480169215       -3.3477671574
 H         -0.3590095847        7.3875646118       -2.1749256401
 H          1.4985715869        7.2527724873       -0.5567547848
 H          2.5815946422        5.1071957738       -0.0980026042
 H          0.3163412843        1.5052561094       -1.5342739157
 H          1.4376744495       -0.5925422498       -1.0686376475
 H          3.3469065534       -2.3951400933       -2.5667006605
 H          1.7017925593       -4.2884833624       -2.5753840149
 H         -0.9060023228       -3.1870512641       -2.2849934608
 H         -2.4082358932       -1.2196560426       -1.9674742173
 H         -5.0249456875       -2.9775244086       -0.2833351606
 H         -7.4198265907       -3.3966285357       -0.2932120357
 H         -9.8986612847        0.1826226623       -0.9012596763
 H        -12.3202167183       -0.2247764197       -0.8677727927
 H        -13.2207397008       -2.2604182462        0.1976574627
 H        -11.6788202506       -3.8812368982        1.2396084998
 H         -9.2576397247       -3.4633537682        1.2287956648
 H         -8.1398288948        0.7077896259        0.5624052252
 H         -5.8704931490        3.5228833038       -0.3438297745
 H         -5.8531677305        2.1484988037       -1.4501126133
 H         -7.2763750700        2.4714764138       -0.4589974600
 H         -5.6711493327        1.4238960960        2.7884448809
 H         -5.8032773117        3.0833602571        2.2063969831
 H         -7.1824304062        1.9948820610        2.0804374842
 H         -4.1204897070        3.7937549252        0.9577781576
 H         -2.9771629038        5.4738855310       -0.0979270735
 H         -2.0839300015        7.6998091277        0.4099716115
 H         -0.1128964889        7.9419372534        1.8752987946
 H          0.9688524161        5.9301319041        2.8103114765
 H          0.0542810032        3.7042618065        2.3364476535
 H         -0.2433305564        2.0560401016        0.7640966550
 H         -1.2437789156       -0.1282817263        0.3859772874
 H         -3.3561437245       -2.5997478243        1.9610227805
 H         -1.8259939164       -4.5539883866        1.6289586449
 H          1.2334774970       -3.9233557463        1.6282985236
 H          2.8746281950       -2.0342741803        1.6614681239
 H          5.2753983503       -3.1474213995        0.0700572572
 H          7.6447497639       -3.3644508343        0.6255139877
 H         10.1117044301        0.0360242046       -0.6609239310
 H         12.4957864034       -0.1552762180       -0.1028915907
 H         13.2317084551       -1.6898332450        1.6840813223
 H         11.5612498690       -3.0230978107        2.9178293360
 H          9.1734921021       -2.8162710234        2.3764839623
 H          8.1064684603        0.8508629910        0.2718631459
