  123
       -185.03360225
 C          4.8223322580        2.7524057409        0.3408567310
 C          4.5071012462        1.8175655040       -0.8412010505
 C          4.9502610195        2.4681449481       -2.1650856010
 C          3.0104676214        1.5844414071       -0.8970676913
 C          2.1577002608        2.6573580069       -1.0827718945
 C          0.7730970311        2.5154836872       -1.1766575020
 C         -0.0941052460        3.6799394771       -1.3558301890
 C         -1.2539669123        3.5947967788       -2.1276196566
 C         -2.0800543401        4.6902803189       -2.2872906269
 C         -1.7746722850        5.8918537222       -1.6685081390
 C         -0.6244533819        5.9913922265       -0.9023041372
 C          0.2118014438        4.9026527346       -0.7553596295
 C          0.2444958741        1.2257700240       -1.0852665994
 C          1.0640748845        0.1454408988       -0.8700287089
 C          2.4540937790        0.3012353179       -0.7650615008
 N          3.2515387413       -0.7975395490       -0.5274925332
 C          2.6322570760       -2.0608027174       -0.2972956351
 C          2.2740661155       -2.8737314197       -1.3751215317
 C          1.6232251715       -4.0646429604       -1.1447729700
 C          1.3401944747       -4.4602118565        0.1618576686
 S          0.1297102985       -5.7395269378        0.4248190933
 O          0.3355324605       -6.3838477450        1.6963458567
 O          0.0277997526       -6.5585939878       -0.7553324106
 C         -1.2399842766       -4.6117854843        0.5368929889
 C         -1.6590037570       -3.9668691315       -0.6272602889
 C         -2.3893213423       -2.8064751765       -0.5410220030
 C         -2.7073595830       -2.2773454453        0.7162918485
 N         -3.3352543799       -1.0024843343        0.7847538314
 C         -4.6475953949       -0.8851262180        0.4045152227
 C         -5.4143474668       -2.0454569513        0.1807190543
 C         -6.7251767860       -1.9624857424       -0.2018895932
 C         -7.3383911641       -0.7138325596       -0.3971011071
 C         -8.7269383954       -0.6096270395       -0.8241107401
 C         -9.1486379252        0.4302864236       -1.6608817417
 C        -10.4641335709        0.5244816552       -2.0655144095
 C        -11.3965125039       -0.4100686352       -1.6408447053
 C        -10.9952017563       -1.4451362458       -0.8095724027
 C         -9.6790197760       -1.5480685969       -0.4093959794
 C         -6.5691923902        0.4313778523       -0.1585296883
 C         -5.2528852199        0.3795131310        0.2494338736
 C         -4.4901384950        1.6612130598        0.5092679613
 C         -4.4423781740        2.4738987124       -0.7973095033
 C         -5.2275254156        2.4599333538        1.6014517308
 C         -3.0751279549        1.4016164515        0.9848259359
 C         -2.2519845034        2.4627499667        1.2922555304
 C         -0.9412707935        2.3092245715        1.7730686257
 C         -0.1208010426        3.4514876312        2.1255914751
 C         -0.6939573394        4.6837142919        2.4784518918
 C          0.0886626452        5.7657565586        2.8178051600
 C          1.4721418283        5.6606603354        2.8207855971
 C          2.0593025746        4.4499984826        2.4790765965
 C          1.2810722719        3.3652537804        2.1374861835
 C         -0.4651579086        0.9904511798        1.9049568342
 C         -1.2455621852       -0.0811064230        1.5730747399
 C         -2.5676966923        0.0893233725        1.1169955648
 C         -2.3498203331       -2.9639614083        1.8807893532
 C         -1.6074464615       -4.1188187788        1.7890223996
 C          1.7240245101       -3.6649360161        1.2397481593
 C          2.3717869906       -2.4720310779        1.0140387377
 C          4.6249171739       -0.7079973248       -0.4898170213
 C          5.3895941658       -1.8684479981       -0.3007526086
 C          6.7613166761       -1.8154151574       -0.2759476461
 C          7.4276643485       -0.5998382676       -0.4464183525
 C          8.8909646797       -0.5309345968       -0.4460121810
 C          9.5646443411        0.3184495810       -1.3242820575
 C         10.9449169442        0.3753388478       -1.3313953331
 C         11.6798632257       -0.4097463191       -0.4580975729
 C         11.0228256937       -1.2553615062        0.4209640629
 C          9.6427834175       -1.3188321663        0.4258577000
 C          6.6585481999        0.5479818298       -0.6274110921
 C          5.2754723720        0.5253716403       -0.6519619807
 H          4.5150388046        2.2855842678        1.2750051893
 H          5.8877723590        2.9587061759        0.3966789596
 H          4.2946933705        3.6962250055        0.2356520863
 H          4.4162449036        3.3979698185       -2.3378473415
 H          6.0142002116        2.6858806331       -2.1536187460
 H          4.7450457297        1.7952733075       -2.9953775726
 H          2.5723593374        3.6483632069       -1.1822611110
 H         -1.4931334081        2.6684089158       -2.6284366638
 H         -2.9663174254        4.6091510651       -2.9003341556
 H         -2.4258353055        6.7452532142       -1.7867869565
 H         -0.3780425308        6.9231258646       -0.4144408560
 H          1.0944646222        4.9925959368       -0.1414830606
 H         -0.8219510273        1.0752688654       -1.1474298994
 H          0.6332687587       -0.8390032363       -0.7727096474
 H          2.5018867677       -2.5492878628       -2.3798229389
 H          1.3239414800       -4.7126488183       -1.9528597494
 H         -1.3794201625       -4.3871821448       -1.5798849112
 H         -2.7033620701       -2.2789341023       -1.4298070722
 H         -4.9543676770       -3.0111627627        0.3219932967
 H         -7.2832689770       -2.8678882286       -0.3826602261
 H         -8.4278428858        1.1490529101       -2.0224682670
 H        -10.7675136746        1.3285552118       -2.7205822231
 H        -12.4262834911       -0.3330748349       -1.9558005984
 H        -11.7172675982       -2.1734766597       -0.4697287337
 H         -9.3853304855       -2.3440387846        0.2587337579
 H         -7.0471422666        1.3916855085       -0.2743146399
 H         -3.8863875756        3.3967035727       -0.6599716119
 H         -3.9541481175        1.8936578222       -1.5777951709
 H         -5.4455661016        2.7225674249       -1.1319074194
 H         -5.2508945048        1.8876990764        2.5268671057
 H         -4.7253578985        3.4037383114        1.7929234499
 H         -6.2501840825        2.6728392391        1.3038724075
 H         -2.6185334239        3.4645057443        1.1356602228
 H         -1.7676959522        4.7846392122        2.5175717674
 H         -0.3798513330        6.7004915950        3.0908457494
 H          2.0846954896        6.5085130481        3.0881714932
 H          3.1363290916        4.3584723900        2.4789519884
 H          1.7623222086        2.4462058742        1.8400643330
 H          0.5250976520        0.8099700009        2.2910615457
 H         -0.8414523227       -1.0760649053        1.6692958980
 H         -2.6411621974       -2.5641983142        2.8410677461
 H         -1.2876621797       -4.6585053157        2.6660190257
 H          1.4975403345       -4.0040110602        2.2380735092
 H          2.6743758280       -1.8396840362        1.8358025219
 H          4.8875584776       -2.8161362946       -0.1839954048
 H          7.3264941745       -2.7264274487       -0.1527360494
 H          9.0005872376        0.9162925766       -2.0254929891
 H         11.4514605847        1.0319480618       -2.0239585268
 H         12.7586885081       -0.3639239318       -0.4637624525
 H         11.5904902478       -1.8674351274        1.1066557981
 H          9.1376932749       -1.9671646124        1.1267487543
 H          7.1732958922        1.4910181516       -0.7291271068
