123
 energy: -185.031043867823 gnorm: 0.000075700911 xtb: 6.7.1 (edcfbbe)
C            5.61857928995857        2.54985931260425        0.63353799606567
C            5.34261628379365        1.63947598598846       -0.57846938665756
C            6.02128591468720        2.21200439090309       -1.83768864142001
C            3.84747012947835        1.58957221210532       -0.81367180427650
C            3.15780837413869        2.74871339771303       -1.08369707464394
C            1.77181233088388        2.78870167733165       -1.32285339693032
C            1.08987031597139        4.03296327594455       -1.61095971383606
C           -0.11361716468860        4.05269851594902       -2.33603279821947
C           -0.73899080678933        5.23907615090679       -2.64833296925583
C           -0.19348744400094        6.45078085306881       -2.24821231764775
C            0.98314433658083        6.45281898756296       -1.51253042163648
C            1.61173284548488        5.26971389949295       -1.19568665139759
C            1.08488518449040        1.55625009327496       -1.27794890710367
C            1.73763375188830        0.39325694547333       -0.98587642418229
C            3.12991420612601        0.37132330554542       -0.75409677164120
N            3.76358321972008       -0.80993861993160       -0.46601682366012
C            2.97849976231444       -1.99261037292903       -0.34548755137603
C            2.53266334438909       -2.65950622228970       -1.49109907324642
C            1.72171927524416       -3.76345224842022       -1.36351605036056
C            1.36314756090125       -4.21810383483591       -0.09507997605758
S            0.04832770592272       -5.40264022616487        0.06359314544806
O            0.18180744880790       -6.12891692046698        1.30065831644296
O           -0.08296672273308       -6.14550944687041       -1.16374510909509
C           -1.27394748770234       -4.22151339114026        0.20786568731642
C           -1.75137786777603       -3.59899471396575       -0.94273248831406
C           -2.57561674156408       -2.50210358970729       -0.83397185506491
C           -2.92102681460282       -2.01685693813243        0.43102683824118
N           -3.73180886833171       -0.85034969096721        0.54095333078472
C           -5.10106969680530       -0.96828612824962        0.42789944271265
C           -5.67362017012708       -2.23523749831835        0.25645296959352
C           -7.03467996259762       -2.38756956135897        0.14328182899959
C           -7.87710896359905       -1.27707347580720        0.18998324641512
C           -9.33111496862936       -1.42222768096622        0.05991498810855
C          -10.07653275286950       -0.50392007043878       -0.67796110738673
C          -11.44557379662555       -0.64530845238985       -0.80277912175152
C          -12.09594461015049       -1.70257985098985       -0.18844963073697
C          -11.36645762543982       -2.62026991037065        0.54923739090677
C           -9.99660941798995       -2.48420603233104        0.67043192021383
C           -7.29903300068198       -0.02314409295251        0.36705376292050
C           -5.93226969927985        0.15879483065032        0.49348337444122
C           -5.37897219884093        1.55412103353881        0.70530248706888
C           -5.78508393536325        2.43333772346062       -0.49179598200172
C           -5.96832902490677        2.12360823294417        2.00914778613654
C           -3.86711301040519        1.55188073768562        0.81798148593522
C           -3.19471697582411        2.74764618786678        1.00310591959080
C           -1.80869255422486        2.82617293455046        1.12392871293544
C           -1.13937489353669        4.11635488408490        1.31375480466994
C           -1.65343959404040        5.28164913754234        0.74556650713166
C           -1.03959520468366        6.50113783526095        0.95281818167069
C            0.10728134729632        6.58298325489638        1.72385728614880
C            0.63953412653856        5.43186934522849        2.27909892493528
C            0.02312551515164        4.21220166385456        2.07854226847765
C           -1.08533323757850        1.63466273258031        1.06541160315448
C           -1.72466038582681        0.43474253528822        0.86513575289153
C           -3.11862248553898        0.36836900859848        0.74030743241987
C           -2.45896000581173       -2.65778937948590        1.58307682096140
C           -1.63112759964256       -3.75217575463194        1.46972856164299
C            1.82836911844051       -3.57043261851412        1.04848927034608
C            2.63655438543227       -2.46462223081160        0.92703811677589
C            5.11518385867935       -0.88592851079188       -0.25687482248207
C            5.71853217315701       -2.13730695803243       -0.01161858072456
C            7.06277448529458       -2.24176190070019        0.20912429195915
C            7.88954111151740       -1.10249221500002        0.18350562747727
C            9.32097068107840       -1.20155473718766        0.41436104020185
C           10.22138960246077       -0.33614812092438       -0.22153818335253
C           11.57873507386421       -0.43793466879324       -0.00093601840768
C           12.07908776261247       -1.39932891939511        0.86503201708509
C           11.20172275992496       -2.26294815391472        1.50474822547974
C            9.84425804827311       -2.17048682569754        1.28136795102010
C            7.27947591921687        0.13217085487912       -0.08159191485336
C            5.92662229971609        0.27072183286649       -0.29992342661371
H            5.12929128240025        2.14757628788125        1.51851529019310
H            6.68439189961622        2.61720262574311        0.83192423497722
H            5.23987527496873        3.55251328720281        0.45737323617569
H            7.09440591459894        2.29684356180151       -1.69367079490058
H            5.83827288285893        1.55684819254383       -2.68710583279756
H            5.63052093098208        3.19733594723121       -2.07448949195504
H            3.70664387393131        3.67435862723298       -1.14769867839113
H           -0.54094095430048        3.12645446246577       -2.68859041035394
H           -1.65691843810685        5.22532731929504       -3.21887116302651
H           -0.68050676187310        7.37996853493473       -2.50272711461892
H            1.40850177866762        7.38938422869163       -1.18179907808075
H            2.50512478189612        5.29928745612047       -0.59074441092098
H            0.01908602100526        1.52913938094080       -1.43743222372461
H            1.18016631347028       -0.52863274152997       -0.92671053966427
H            2.82455149378079       -2.29149535048581       -2.46358491366611
H            1.35620531846129       -4.30075837552808       -2.22372504758221
H           -1.46339806971273       -3.99698380706687       -1.90250919655228
H           -2.95670256686476       -2.00317868463924       -1.71282628586420
H           -5.03301249545770       -3.10216819829712        0.21387147668991
H           -7.44926167161352       -3.37280044949599       -0.00567522103090
H           -9.57382604275716        0.31134647734327       -1.17800767475614
H          -12.00845045164761        0.07034426774533       -1.38446928342354
H          -13.16597245054519       -1.81138420888554       -0.28505683970967
H          -11.86870888466958       -3.44505069061259        1.03354477666990
H           -9.43624038611485       -3.19347907029886        1.26179985810936
H           -7.95442933321192        0.83205581151109        0.43035565803880
H           -5.41983813368691        3.44887804646136       -0.36853823626256
H           -5.36642013668207        2.02602224796500       -1.41017595248944
H           -6.86578111593092        2.47196151306786       -0.59436275942924
H           -5.68097019758902        1.49569569755878        2.85029007719147
H           -5.60285236354447        3.13008266199285        2.19254269498706
H           -7.05307506204765        2.15780565893883        1.96207481841646
H           -3.76409359844473        3.66055914476582        1.08171561287570
H           -2.52894686990426        5.23010268353769        0.11574476587138
H           -1.45625590162341        7.39282176109572        0.50810751199159
H            0.58481778977526        7.53739677005216        1.88867424191020
H            1.53601588498223        5.48646046035370        2.87994233776658
H            0.43286564885232        3.32701797930550        2.54191466826560
H           -0.00994021299020        1.65059581782058        1.14670128588794
H           -1.14309328504262       -0.47185593839611        0.80007980081330
H           -2.74990204205785       -2.27790458450265        2.55134492435417
H           -1.25327001427058       -4.26996899145196        2.33663467574781
H            1.54183662707523       -3.95744958069943        2.01301996713696
H            3.00589384024502       -1.94562326177282        1.79921248065906
H            5.10346445821397       -3.02360032890201       -0.01225528008222
H            7.49888443431854       -3.21537476159087        0.36884816073527
H            9.85152378230042        0.39791110689387       -0.92225352628772
H           12.25631655954045        0.23243177403693       -0.51011259811971
H           13.14192481206403       -1.47567338631174        1.03830354828378
H           11.58317794018368       -3.01091139404347        2.18483055665753
H            9.17203812423135       -2.83286507301131        1.80617097929377
H            7.90453064993310        1.01143431870728       -0.08376453248278
