  55
        -80.37359795
 C          3.0163141129       -3.4451373718        1.4803379575
 C          2.2046302159       -3.6215271956        0.1886773146
 C          3.1322718702       -3.4851221144       -1.0280524023
 C          1.6122991649       -5.0327956640        0.1823885655
 C          1.1340448098       -2.5463023877        0.1224157781
 C         -0.2310508985       -2.8295028049        0.0864263772
 C         -1.1677299176       -1.7959936647        0.0509765139
 C         -0.8017578965       -0.4465492350        0.0355255192
 C          0.5802137136       -0.1702078381        0.0248686776
 C          1.5174884528       -1.2044555720        0.0997671014
 N          0.9962507987        1.1522695896       -0.0407421096
 C          2.3905793051        1.3886120539       -0.1411176657
 C          3.0661590532        1.0496021550       -1.3133782640
 C          4.4273194402        1.2614081993       -1.4100757461
 C          5.1286240288        1.8057325631       -0.3440477296
 C          4.4576898366        2.1397886619        0.8243848820
 C          3.0963201519        1.9350213447        0.9297730655
 C          0.1418252042        2.2407064710        0.0308210876
 C          0.6831021824        3.5263162900       -0.0748529728
 C         -0.1062546486        4.6491603239        0.1189831641
 C         -1.4495124992        4.4894729221        0.4417682986
 C         -2.0070520331        3.2269291486        0.4790347192
 C         -1.2697881188        2.0621333068        0.2032709985
 B         -1.8523098730        0.6507347623        0.0695179691
 C         -3.2927871058        0.1330442982       -0.0718226474
 C         -4.4573091344        0.8980071405       -0.2697674375
 C         -5.7119554704        0.3323585329       -0.3548214315
 C         -5.8728235574       -1.0465388673       -0.2655813390
 C         -4.7536400984       -1.8479929885       -0.1203551374
 C         -3.4882326189       -1.2742484397       -0.0434432829
 O         -2.4705677148       -2.1781382383        0.0511802439
 H          3.7753860017       -4.2208597685        1.5548714789
 H          2.3629108149       -3.5166057218        2.3472410286
 H          3.5137690411       -2.4792877490        1.5069864204
 H          3.6348408923       -2.5215818609       -1.0395236832
 H          3.8918783023       -4.2636186549       -1.0083862523
 H          2.5608967530       -3.5840935405       -1.9485896330
 H          2.4167989149       -5.7642683137        0.2220362168
 H          1.0395984610       -5.2115451045       -0.7245566357
 H          0.9717247301       -5.1915331523        1.0464904823
 H         -0.6053861913       -3.8389181233        0.1125372935
 H          2.5671865808       -0.9618842125        0.1385020300
 H          2.5109925245        0.6264453981       -2.1375182817
 H          4.9445956516        1.0023860886       -2.3217759077
 H          6.1924241275        1.9685047512       -0.4225331492
 H          5.0010676112        2.5580219573        1.6583307483
 H          2.5667076764        2.1880217758        1.8363438588
 H          1.7286604404        3.6597369683       -0.3065653933
 H          0.3284043130        5.6327654054        0.0320412345
 H         -2.0634268572        5.3580803201        0.6335886023
 H         -3.0509660601        3.1231165381        0.7267866499
 H         -4.3602777636        1.9676479383       -0.3658876357
 H         -6.5789575839        0.9639277266       -0.4878898302
 H         -6.8543566121       -1.4910666268       -0.3241348782
 H         -4.8367490952       -2.9234390786       -0.0770853074
