55
 energy: -80.376470439927 gnorm: 0.000041739028 xtb: 6.7.1 (edcfbbe)
C            3.02556812329825       -3.43131357327520        1.47175384166928
C            2.20582155102446       -3.62000866757610        0.18688151113497
C            3.12597924201543       -3.49426433522707       -1.03654683662477
C            1.61434140910808       -5.03160900360948        0.19784269968411
C            1.13433712127017       -2.54575205392421        0.11779470489638
C           -0.23069948116637       -2.82903829036339        0.08717648833347
C           -1.16871761395885       -1.79550716065137        0.04874582263001
C           -0.80329072518880       -0.44652720549580        0.02872804264159
C            0.57831418620049       -0.17050124627694        0.01460349560404
C            1.51722185477854       -1.20387737135803        0.08640242252359
N            0.99372839461359        1.15133497717451       -0.05253504402731
C            2.39019866952142        1.38806368897598       -0.14240583247291
C            3.06789433822972        1.08394935686981       -1.32167885660501
C            4.43074266069637        1.29433966913645       -1.40610963054939
C            5.12847254489835        1.80265179347304       -0.32075180192989
C            4.45428894259851        2.10270045866324        0.85447068492580
C            3.09141742217288        1.89865321516123        0.94769856590638
C            0.14045588556763        2.24156002155218        0.01714316837328
C            0.68651073115561        3.52483566608580       -0.08400155377490
C           -0.10110083580130        4.65019292444014        0.10526078560853
C           -1.44627273635218        4.49302011494349        0.42021446743378
C           -2.00679593221503        3.23162908014051        0.45743257981161
C           -1.27127782912690        2.06439968244957        0.18722943376451
B           -1.85447968148016        0.65203817632124        0.06058010346794
C           -3.29578720427851        0.13205264914988       -0.07236374175732
C           -4.46237024813725        0.89527630905941       -0.26236658741664
C           -5.71697556665574        0.32839985863336       -0.34065832061711
C           -5.87547525761480       -1.05050917469878       -0.25230385806504
C           -4.75430712941285       -1.85021310218156       -0.11322757660719
C           -3.48984608874561       -1.27475979528826       -0.04156674525092
O           -2.47029974898175       -2.17885156710116        0.05155352889723
H            3.78498354210373       -4.20643836792232        1.54898226290595
H            2.37742095308131       -3.49455203628911        2.34319264816529
H            3.52336447762424       -2.46529134655378        1.48655170686607
H            3.62894557825665       -2.53101949787199       -1.05851963773998
H            3.88525745162833       -4.27306370056171       -1.01543010239497
H            2.54881001413720       -3.59978832147388       -1.95272678919219
H            2.41930662758070       -5.76240149871866        0.24138429688921
H            1.03757835039275       -5.21990812487429       -0.70450749332712
H            0.97771095148836       -5.18137278957798        1.06644552635063
H           -0.60491667374806       -3.83836829400300        0.11796602737927
H            2.56702126794583       -0.96033271223551        0.11641000006066
H            2.51506862908493        0.68739707106360       -2.16043145835637
H            4.95121442562181        1.06205664696734       -2.32316109541417
H            6.19322272587968        1.96400738857781       -0.38956297788202
H            4.99525144014714        2.49345104881956        1.70313367747542
H            2.55803040697694        2.12604673368494        1.85878139557307
H            1.73432260472246        3.65499805544547       -0.30772218931824
H            0.33667625448442        5.63268623951872        0.02179973671264
H           -2.05929433323152        5.36297187187871        0.60909819599779
H           -3.05201532407079        3.13116928075290        0.70107638253607
H           -4.36773453426202        1.96520832951645       -0.35832720643042
H           -6.58543554333094        0.95924363521959       -0.46898399699219
H           -6.85666355808674       -1.49661003821114       -0.30701415899034
H           -4.83571526571066       -2.92582163356098       -0.07010607255373
