55
 energy: -80.376470206119 gnorm: 0.000041877029 xtb: 6.7.1 (edcfbbe)
C            3.02626186415222       -3.47881522663988        1.34708188968222
C            2.18248383669216       -3.63774770611600        0.07381823797442
C            3.08159386633909       -3.49490147185855       -1.16334507878835
C            1.58150092020246       -5.04535953814816        0.06950767016081
C            1.11740872012940       -2.55537726795314        0.04200220698886
C           -0.24954759191606       -2.82914955299271        0.01482386470957
C           -1.18088245996640       -1.78890469881617        0.00603102975035
C           -0.80666594879378       -0.44224434580942        0.01459004426497
C            0.57664340547007       -0.17458339075420       -0.00008706025395
C            1.50895327978122       -1.21565631456296        0.03983553344720
N            1.00009517342817        1.14596616621070       -0.03545150441355
C            2.39837772178945        1.37776606386436       -0.10871646163217
C            3.08551848161529        1.09919443656519       -1.28884345778681
C            4.45030617677320        1.30377250083555       -1.35512288434138
C            5.14043392236655        1.78126463355533       -0.25113969718461
C            4.45662539974373        2.05679080071241        0.92455277593627
C            3.09189481340173        1.85810482681696        0.99984387508677
C            0.15344991629372        2.23960985925284        0.05853422737462
C            0.70723161104660        3.52124104696631       -0.01812776566135
C           -0.07282070821908        4.64735959684161        0.19632468269580
C           -1.41789350377154        4.49197931524576        0.51285440237031
C           -1.98607300089132        3.23360223979392        0.52647912314405
C           -1.25879921276900        2.06762035542882        0.22950846180806
B           -1.85085006499739        0.66192780777466        0.07589807371664
C           -3.29590852760499        0.15406273448415       -0.06290591465169
C           -4.45799647719205        0.92874795090283       -0.23300580626412
C           -5.71670572795575        0.37188543057805       -0.31673942600174
C           -5.88405283707880       -1.00741027430260       -0.25480944811289
C           -4.76768375751006       -1.81722392349263       -0.13706428883051
C           -3.49907609376810       -1.25172545782780       -0.06014087927937
O           -2.48491175770338       -2.16398782453942        0.00899575703060
H            3.77965679409436       -4.26199798037461        1.39721701148608
H            2.39300160827286       -3.55162798647219        2.22865080106100
H            3.53358657523996       -2.51794661649473        1.37015451612968
H            3.58900126410807       -2.53379965582458       -1.17667372910113
H            3.83689337358746       -4.27781772832792       -1.16978877358233
H            2.48772128613439       -3.58081161849175       -2.07087450602299
H            2.38196047543860       -5.78210361255899        0.08925805828894
H            0.99076942514298       -5.21484245657818       -0.82749973239839
H            0.95619160757177       -5.20525177458497        0.94453467267592
H           -0.63027016582978       -3.83646203538815        0.02518075233130
H            2.56062729538837       -0.98019754283415        0.06678376848992
H            2.53865978007766        0.72660416615153       -2.14237467788787
H            4.97831666585627        1.09089063509371       -2.27258055985274
H            6.20671876428877        1.93778486378543       -0.30581040093342
H            4.99148246754417        2.42386257684115        1.78752012060870
H            2.55089818430081        2.06648173649955        1.91097869489018
H            1.75510077988119        3.64934365053270       -0.24292048902067
H            0.37056237649936        5.62869438784680        0.13089745792300
H           -2.02486535411593        5.36163216918792        0.72163415999356
H           -3.03088464649429        3.13442518093805        0.77240991880978
H           -4.35644236492788        1.99968800504866       -0.30837271077416
H           -6.58144385338467        1.01091084918985       -0.42867136189125
H           -6.86845808393586       -1.44579971400679       -0.31384776746881
H           -4.85620082272865       -2.89290993257285       -0.11536001559378
