55
 energy: -80.469730599804 gnorm: 0.000044160903 xtb: 6.7.1 (edcfbbe)
C            3.73305941069593       -1.75677767102682        1.43612498576594
C            3.04176559460220       -2.28887398595038        0.17281278508463
C            3.80212350030652       -1.81570232797997       -1.07411453793089
C            3.09118146326893       -3.81830425581157        0.20907044521115
C            1.62032774158599       -1.74983653946308        0.12416102762715
C            0.50681945576800       -2.57878118755617        0.13477137003676
C           -0.76835442082148       -2.02950153408585        0.08619971112472
C           -0.98272323131697       -0.64609219886836        0.03799574719355
C            0.15463666040064        0.18405699061633        0.03473992619815
C            1.43052174619299       -0.37436780204635        0.07135725445928
N           -0.01680750712582        1.55179103894680       -0.00911132735191
C            1.16040923301166        2.35157155944158       -0.10894288125632
C            1.68870457743795        2.64371724429474       -1.35933629399700
C            2.84398541645470        3.39922664539618       -1.45834854076379
C            3.47234332235788        3.86216450428103       -0.31427845085055
C            2.94500340240953        3.56981497743387        0.93303382056824
C            1.79089348923387        2.81445629786444        1.03955360043186
C           -1.24329598757427        2.18355447654110        0.08990505408820
C           -1.26989624397047        3.58575304076665        0.13473401210387
C           -2.45381460918710        4.26534315806579        0.29727469996918
C           -3.64587148655250        3.56452113178035        0.43437739961124
C           -3.63051212708554        2.19088457617396        0.35783289963876
C           -2.45589621244450        1.45485654538191        0.15332687831215
B           -2.39092331543310       -0.07888247445779        0.00447259912742
C           -3.49290027935879       -1.15597483101126       -0.17468515045177
C           -4.85031853908982       -0.93587606407545       -0.44477922093790
C           -5.76006165242667       -1.96399978653815       -0.55701619436842
C           -5.34084481822314       -3.28013836355749       -0.40257346444085
C           -4.01100526529032       -3.54784801554683       -0.17400748520390
C           -3.09001462698448       -2.50117101449776       -0.07898519661553
O           -1.80354290140314       -2.90614170982834        0.09877365545116
H            4.74584258301077       -2.14882453258665        1.50219421699147
H            3.18380975188195       -2.06678891549120        2.32260123230766
H            3.78756760192088       -0.67147865419124        1.43088585625944
H            3.86023193606683       -0.73146783091335       -1.11720926921607
H            4.81590079475854       -2.21066526569298       -1.06619601246630
H            3.30152913226434       -2.16669907140959       -1.97399499636074
H            4.12816638020359       -4.14713427589940        0.23902124489226
H            2.62839972971302       -4.24456499219182       -0.67767968586110
H            2.59054479928134       -4.20454201230945        1.09350171708395
H            0.58851017881459       -3.65098276438504        0.17427731587427
H            2.28835028784398        0.27847768125176        0.06826979894332
H            1.19095104236526        2.27399854543266       -2.24344626866644
H            3.25461182228466        3.62573999583656       -2.43096542421095
H            4.37405809216232        4.45051755665220       -0.39421728588112
H            3.43485385499921        3.92923929304876        1.82570700712090
H            1.37079884589955        2.57731549902764        2.00582405314958
H           -0.34962982455660        4.14455782636573        0.05144676326786
H           -2.44946106904588        5.34521350746747        0.33280446301948
H           -4.57263701616255        4.09558664748810        0.59418642042218
H           -4.55751526397158        1.65361784005485        0.48019326246322
H           -5.19176462578578        0.07676064351760       -0.59140704469221
H           -6.79834175040332       -1.75020409167588       -0.76510114669741
H           -6.05056450290292       -4.09081637562460       -0.47769923591726
H           -3.64920457007030       -4.56030067845273       -0.07733210964116
