55
 energy: -80.469735052169 gnorm: 0.000026978984 xtb: 6.7.1 (edcfbbe)
C            3.06579096089188       -3.42713773238146        1.35247180831032
C            2.17159071231588       -3.62694770684008        0.12064266090507
C            3.01642003678727       -3.52397586352504       -1.15708053402583
C            1.57609286264657       -5.03546215011868        0.18685428595087
C            1.10654449751999       -2.54129282614896        0.09975375602357
C           -0.25137970277262       -2.82694989523483        0.13901356902393
C           -1.17954152538327       -1.79363469079252        0.10976891133359
C           -0.79537411494933       -0.44766913531464        0.05564620955620
C            0.58498816784426       -0.17083949376812        0.02635902426142
C            1.50969125673782       -1.21291035528517        0.03991465351019
N            1.00191235087916        1.14287950879388       -0.02056649834582
C            2.40472536511744        1.37639182990019       -0.13559231129697
C            2.99070261456331        1.44184597687968       -1.39265723385185
C            4.35499310449147        1.64518853744369       -1.50554064365489
C            5.13420187549674        1.78191961403346       -0.36879434697819
C            4.54894162438061        1.71577173438760        0.88518007306808
C            3.18587364697297        1.51229360364215        1.00554651292551
C            0.15501976911601        2.23039325095711        0.09478923736095
C            0.71995618034651        3.51418375837168        0.13533719629959
C           -0.06705882596999        4.62753834262496        0.31123281774126
C           -1.44115950792241        4.49133804867975        0.46672804878950
C           -2.00452123032935        3.23806832915082        0.39659497670698
C           -1.25025370427070        2.07732618513726        0.17962759217061
B           -1.83676323089323        0.65750353414072        0.04140546053508
C           -3.29199010870882        0.14123102265005       -0.10936911999505
C           -4.43768282317974        0.90962984568344       -0.35636620247223
C           -5.69656298736843        0.35729355884209       -0.44251769083675
C           -5.86427118563754       -1.01332302670248       -0.28411836840051
C           -4.76445333763469       -1.81350075303942       -0.07811299189006
C           -3.48796738682805       -1.24897001806819       -0.00946726123302
O           -2.48627499369416       -2.15583949783856        0.14761509450442
H            3.82091571983207       -4.20916355862922        1.39754337820762
H            2.46814426013585       -3.47093751974619        2.26049967989422
H            3.57251390985081       -2.46630295726087        1.32362670437175
H            3.52051227993930       -2.56358801835548       -1.22367558585801
H            3.77184043144261       -4.30690215445056       -1.17029888007381
H            2.38400151297109       -3.63904828497479       -2.03481918582917
H            2.37990452639804       -5.76900083885634        0.19939575067225
H            0.95116293769650       -5.23617668054513       -0.67991465255112
H            0.98605716308713       -5.16767649809929        1.09044239144885
H           -0.62597594294156       -3.83458978500937        0.18570429891109
H            2.56187638580835       -0.98001955004610        0.01252780248418
H            2.37248659864163        1.33066337294243       -2.27103985605653
H            4.81029303561153        1.69576053485980       -2.48332612810433
H            6.19844492484792        1.93934681891161       -0.45964410006579
H            5.15573919602440        1.82104272527260        1.77215798536471
H            2.71740261119506        1.45629739481169        1.97703734044286
H            1.78859397616784        3.63533103497631        0.03819636764618
H            0.39057643802137        5.60578796016597        0.34281850418502
H           -2.05734739930409        5.36196613839803        0.63639686110805
H           -3.06948574078991        3.13934861700686        0.53439824281794
H           -4.32670449988769        1.97210029872606       -0.50577313198564
H           -6.55380142158231        0.98645767599996       -0.63313052547471
H           -6.84973844481451       -1.45200207860377       -0.33856335139400
H           -4.85802907841502       -2.88437404516058        0.02081303871597
