  49
        -81.41517823
 C         -6.2233335117        3.4792366460       -0.2336671838
 C         -6.3275190480        2.6034494285        0.8358013309
 C         -5.4874608983        1.5105911835        0.9280417305
 C         -4.5322494247        1.2839705537       -0.0612923368
 N         -3.6748000049        0.1807963522        0.0266382502
 C         -4.0649918776       -1.1305322998        0.2565772087
 C         -5.3353959430       -1.6562369216        0.4119547285
 C         -5.4475780737       -3.0266084015        0.6096157160
 C         -4.3249939955       -3.8460740481        0.6406356768
 C         -3.0537570248       -3.3284233810        0.4592845028
 C         -2.9179051951       -1.9601686170        0.2587453807
 C         -1.7922823010       -1.1036735019        0.0167509126
 C         -0.4314680981       -1.3269324932       -0.0886105289
 C          0.4250889121       -0.2420909140       -0.2939152502
 C          1.8629280671       -0.4514105652       -0.3788003596
 C          2.3522689992       -1.5912575605       -1.0610184588
 N          3.6570344470       -1.8593221132       -1.1855098926
 C          4.5066849967       -1.0135583676       -0.6866594300
 O          5.8421808842       -1.2071415581       -0.6738029966
 C          6.3757911344       -0.1157555603       -0.0593354117
 N          7.6505216658        0.0465107746        0.1250698621
 C          8.0457567606        1.1668526370        0.7534513443
 C          7.1484606094        2.1225336104        1.2140580587
 C          5.7894305717        1.9617021918        1.0266554748
 C          5.3601384100        0.7937173903        0.3619392045
 C          4.1462155095        0.2188889447       -0.0454362695
 C          2.7709561393        0.4690158392        0.1267040003
 C         -0.1087071590        1.0571991053       -0.4040224106
 C         -1.4633225677        1.2994224327       -0.3122536001
 C         -2.3113373613        0.2145677539       -0.1195597218
 C         -4.4308979683        2.1632701394       -1.1384699465
 C         -5.2730486620        3.2552667024       -1.2177488738
 H         -6.8801529156        4.3328222489       -0.3001668348
 H         -7.0628023021        2.7775880989        1.6070221879
 H         -5.5467086838        0.8421756604        1.7735603779
 H         -6.2139346897       -1.0309267700        0.3680438446
 H         -6.4271328655       -3.4612045389        0.7377229439
 H         -4.4504417551       -4.9065240995        0.8001962421
 H         -2.1859626731       -3.9693931009        0.4691598543
 H         -0.0299793444       -2.3222613333        0.0206209661
 H          1.6907063119       -2.2512377125       -1.5962418770
 H          9.1109113642        1.2745573337        0.8777516627
 H          7.5308499250        2.9967810234        1.7186160607
 H          5.0747879269        2.6959453976        1.3645016461
 H          2.4444317531        1.3241215854        0.6967307371
 H          0.5651119230        1.8828563114       -0.5712393181
 H         -1.8489410471        2.3056086781       -0.3751722962
 H         -3.7070222474        1.9699771613       -1.9159859076
 H         -5.1926047406        3.9314900438       -2.0556839435
  49
        -81.41512814
 C         -6.8457098892        2.6918893973       -0.9998359124
 C         -6.7081194603        2.2291131492        0.2994959630
 C         -5.6608305766        1.3930422117        0.6356049345
 C         -4.7395692078        1.0093841486       -0.3371637864
 N         -3.6776094183        0.1600274378       -0.0026436780
 C         -3.7935530718       -1.0412232335        0.6814747133
 C         -4.9295331867       -1.6897077279        1.1322239112
 C         -4.7642903945       -2.9101779312        1.7748684675
 C         -3.5031775856       -3.4679352001        1.9512953361
 C         -2.3659566919       -2.8347172117        1.4794303717
 C         -2.5075294898       -1.6128634575        0.8326078632
 C         -1.5826110443       -0.7088947024        0.2115118422
 C         -0.2087586300       -0.7138189664        0.0523105180
 C          0.4094345891        0.3631688888       -0.5881886803
 C          1.8568562958        0.3927601603       -0.7403137130
 C          2.4161848879        0.8908523951       -1.9409019227
 N          3.7352041065        0.9534579073       -2.1570856672
 C          4.5297152526        0.5017275817       -1.2347266306
 O          5.8752088414        0.5844192130       -1.2935624657
 C          6.3384438804        0.0204708844       -0.1438673845
 N          7.6007425795       -0.0818185068        0.1418158333
 C          7.9238272199       -0.6522861230        1.3148909137
 C          6.9671490715       -1.1085014195        2.2139522161
 C          5.6210287882       -1.0040278957        1.9239054298
 C          5.2668938186       -0.4125107736        0.6926311668
 C          4.0914827774       -0.1067933286       -0.0108572778
 C          2.7042826036       -0.1214942591        0.2319485594
 C         -0.3732464812        1.4300969390       -1.0720264291
 C         -1.7445236802        1.4536305092       -0.9242108978
 C         -2.3547783319        0.3743008187       -0.2947500284
 C         -4.8795544941        1.4738559251       -1.6438803808
 C         -5.9284573886        2.3124860877       -1.9675101677
 H         -7.6644075143        3.3461227214       -1.2570889173
 H         -7.4165933329        2.5276340669        1.0575658488
 H         -5.5352813805        1.0515916258        1.6521526254
 H         -5.9136103166       -1.2733283904        0.9806441065
 H         -5.6339970894       -3.4357131593        2.1385174681
 H         -3.4128518317       -4.4174212604        2.4573994071
 H         -1.3907107762       -3.2788220091        1.6050960304
 H          0.3798790321       -1.5425528553        0.4136882388
 H          1.7962218307        1.1590155841       -2.7796538336
 H          8.9799708463       -0.7326364085        1.5142841140
 H          7.2941678526       -1.5512024543        3.1423082580
 H          4.8604672627       -1.3631936418        2.5991519342
 H          2.3255607066       -0.4634889204        1.1819908552
 H          0.1231251193        2.2656939030       -1.5400636268
 H         -2.3223002637        2.2958598531       -1.2731951149
 H         -4.1772795547        1.1547817976       -2.3993090367
 H         -6.0344137819        2.6675944133       -2.9815772682
  49
        -81.41504254
 C         -6.7908142643        2.8015249799       -0.8656104580
 C         -5.6564513142        3.2458029537       -0.2043363061
 C         -4.6244794691        2.3709731738        0.0748608763
 C         -4.7215289078        1.0359297325       -0.3134542510
 N         -3.6776527153        0.1461033875       -0.0303210967
 C         -3.8153796783       -1.0872398474        0.5889706850
 C         -4.9535136638       -1.7039294506        1.0777414098
 C         -4.8061109854       -2.9454729160        1.6827112873
 C         -3.5582372615       -3.5466996540        1.8026064455
 C         -2.4134481661       -2.9220283649        1.3380031263
 C         -2.5367854753       -1.6781654149        0.7306744094
 C         -1.5938018773       -0.7538792339        0.1688200384
 C         -0.2192054553       -0.7714819499        0.0120964111
 C          0.4094221432        0.3079406990       -0.6130712734
 C          1.8584266385        0.3318425825       -0.7591933795
 C          2.4204778389        0.7761176382       -1.9785187376
 N          3.7404218883        0.8358580090       -2.1900588639
 C          4.5320569387        0.4384175953       -1.2408378074
 O          5.8772468321        0.5334927549       -1.2949209118
 C          6.3376759679        0.0428474696       -0.1114459220
 N          7.5982146080       -0.0225272216        0.1911720767
 C          7.9190881544       -0.5144586012        1.4002396638
 C          6.9602929035       -0.9273414497        2.3176623468
 C          5.6157134622       -0.8631412056        2.0094825603
 C          5.2639786480       -0.3566497412        0.7398845755
 C          4.0911939765       -0.1089210376        0.0103993309
 C          2.7009525029       -0.1313685157        0.2413428630
 C         -0.3626112851        1.3762976123       -1.1083133145
 C         -1.7321401918        1.4195786139       -0.9499454762
 C         -2.3483833717        0.3613092822       -0.2913371086
 C         -5.8606558435        0.5909138496       -0.9813382837
 C         -6.8884784065        1.4738420086       -1.2514609028
 H         -7.5957399342        3.4876779892       -1.0795126933
 H         -5.5787909472        4.2779454841        0.1027704133
 H         -3.7498965405        2.7062673016        0.6119915924
 H         -5.9236628678       -1.2368154748        1.0044234634
 H         -5.6787422809       -3.4496171227        2.0688723923
 H         -3.4825999703       -4.5144720562        2.2753803527
 H         -1.4450108323       -3.3852163621        1.4462005853
 H          0.3612371829       -1.6142257737        0.3542631545
 H          1.8020334709        0.9997729351       -2.8313366953
 H          8.9745178160       -0.5658161001        1.6123012389
 H          7.2841997447       -1.3040110106        3.2758015436
 H          4.8546886773       -1.1896384953        2.7004923302
 H          2.3150393043       -0.4380575725        1.2005989682
 H          0.1408922811        2.1934863942       -1.6009157125
 H         -2.3067917169        2.2474253168       -1.3364342844
 H         -5.9213807345       -0.4379461958       -1.3027143351
 H         -7.7676784046        1.1258021550       -1.7725989487
  49
        -81.41502707
 C         -6.8851074631        2.5925419993       -1.1262066710
 C         -6.8156064422        2.1094032697        0.1712510124
 C         -5.7580721091        1.3118146673        0.5639947015
 C         -4.7574271980        0.9868060607       -0.3502112596
 N         -3.6850838490        0.1734928412        0.0356037646
 C         -3.7918176635       -1.0546191152        0.6727895052
 C         -4.9234906934       -1.7504183393        1.0589764215
 C         -4.7457588558       -2.9870339774        1.6670700506
 C         -3.4763542547       -3.5145696862        1.8727288488
 C         -2.3420009321       -2.8343852098        1.4631193659
 C         -2.4961206111       -1.5961165189        0.8513984395
 C         -1.5755166905       -0.6488918369        0.2913922421
 C         -0.1994750018       -0.6240696491        0.1561367107
 C          0.4107575119        0.4842550101       -0.4374332676
 C          1.8555322845        0.5208406103       -0.6076038044
 C          2.3913374663        1.0897704074       -1.7879397584
 N          3.7038167197        1.1404702527       -2.0411270554
 C          4.5144514656        0.6068978234       -1.1780191495
 O          5.8588915028        0.6522449503       -1.2818213635
 C          6.3434630549       -0.0108291711       -0.1958190550
 N          7.6109302234       -0.1821924869        0.0269817494
 C          7.9568108131       -0.8540095302        1.1382895409
 C          7.0187088836       -1.3414143871        2.0399730669
 C          5.6672128368       -1.1632592231        1.8167419786
 C          5.2886432773       -0.4668894827        0.6498768550
 C          4.0995842168       -0.0718817788        0.0163540424
 C          2.7211531205       -0.0698975876        0.3041189538
 C         -0.3827496517        1.5621259730       -0.8803505054
 C         -1.7567547029        1.5530492268       -0.7622083704
 C         -2.3592078690        0.4334975539       -0.1989733085
 C         -4.8289480886        1.4722281266       -1.6551611212
 C         -5.8884980669        2.2725891140       -2.0352284874
 H         -7.7125050507        3.2160931110       -1.4279126477
 H         -7.5862249517        2.3624629696        0.8838409537
 H         -5.6863355866        0.9563261500        1.5808977754
 H         -5.9136689180       -1.3585925190        0.8846832453
 H         -5.6123571553       -3.5479069002        1.9818229634
 H         -3.3763698414       -4.4767874640        2.3525573476
 H         -1.3590721164       -3.2545448028        1.6096415141
 H          0.3961252854       -1.4581628580        0.4928228160
 H          1.7534626999        1.4235905156       -2.5887332117
 H          9.0159990040       -0.9905528868        1.2837528660
 H          7.3631094914       -1.8672469407        2.9174014004
 H          4.9209134829       -1.5442881611        2.4959888438
 H          2.3649610289       -0.4652084736        1.2420573365
 H          0.1057206498        2.4280040142       -1.2987253675
 H         -2.3439557548        2.3984375964       -1.0872377105
 H         -4.0645447713        1.1979909243       -2.3667051530
 H         -5.9414569784        2.6420267120       -3.0483064877
  49
        -81.41445799
 C         -6.6166280601        2.9931046927       -0.7582052839
 C         -5.4321074243        3.3440611271       -0.1292130954
 C         -4.4603032977        2.3911974427        0.1056367509
 C         -4.6682722314        1.0720909214       -0.2943000282
 N         -3.6744876149        0.1132583848       -0.0580858552
 C         -3.8479695876       -1.1013206864        0.5869733219
 C         -5.0001832656       -1.6648000925        1.1058787349
 C         -4.8902695984       -2.9008829149        1.7293016372
 C         -3.6644763996       -3.5481684139        1.8373643529
 C         -2.5049846473       -2.9770941297        1.3411895159
 C         -2.5902384948       -1.7400008286        0.7138354986
 C         -1.6225756668       -0.8641912193        0.1160008250
 C         -0.2494800818       -0.9251524459       -0.0528842941
 C          0.3993678898        0.1197870208       -0.7134648668
 C          1.8505650261        0.1324961794       -0.8501393487
 C          2.4211675336        0.4730555218       -2.0976191644
 N          3.7428833448        0.5569581520       -2.2906493893
 C          4.5266901057        0.2887533977       -1.2913366227
 O          5.8671911881        0.4456505638       -1.3251714644
 C          6.3168065231        0.1124072824       -0.0845700281
 N          7.5681689630        0.1580678732        0.2563926552
 C          7.8770394394       -0.1720855757        1.5223665122
 C          6.9138013209       -0.5352633173        2.4561639715
 C          5.5788770885       -0.5897314655        2.1075109196
 C          5.2403523644       -0.2531679355        0.7789018606
 C          4.0785847517       -0.1496022966       -0.0003803751
 C          2.6841537952       -0.2099702170        0.2033671623
 C         -0.3460312437        1.1908119144       -1.2402610926
 C         -1.7098158138        1.2838482825       -1.0597118616
 C         -2.3444956170        0.2667062882       -0.3556377705
 C         -5.8588190114        0.7197777139       -0.9255082682
 C         -6.8258753823        1.6809926197       -1.1524418419
 H         -7.3735790646        3.7403601457       -0.9404528485
 H         -5.2670553984        4.3634689651        0.1858355642
 H         -3.5449622543        2.6530323727        0.6153345063
 H         -5.9524992737       -1.1613557028        1.0401008127
 H         -5.7746051096       -3.3645980826        2.1389591313
 H         -3.6177384069       -4.5098280635        2.3260903007
 H         -1.5539119138       -3.4770094620        1.4399398428
 H          0.3142869467       -1.7700151720        0.3115751961
 H          1.8108561168        0.5989455827       -2.9760733864
 H          8.9260542329       -0.1338271366        1.7663806540
 H          7.2272277670       -0.7796389191        3.4595590997
 H          4.8153490350       -0.8802765882        2.8117296113
 H          2.2854967185       -0.4446760628        1.1775818105
 H          0.1766993020        1.9724444219       -1.7693745236
 H         -2.2665068410        2.1175979785       -1.4594391596
 H         -6.0077129009       -0.2979595841       -1.2535531913
 H         -7.7453315154        1.4062628585       -1.6472462868
  49
        -81.41424839
 C         -6.5932111600        3.0223070304       -0.7295682204
 C         -5.3916261843        3.3679521641       -0.1308401265
 C         -4.4242564725        2.4081173663        0.0936382468
 C         -4.6533719261        1.0867787118       -0.2873213136
 N         -3.6679929636        0.1182232826       -0.0577543304
 C         -3.8525615403       -1.0932423021        0.5906590451
 C         -5.0068727510       -1.6387837246        1.1240906995
 C         -4.9093063168       -2.8774763266        1.7440923817
 C         -3.6929574382       -3.5448429727        1.8357145649
 C         -2.5303300637       -2.9902779316        1.3285338091
 C         -2.6032589521       -1.7504293812        0.7050025110
 C         -1.6285216424       -0.8882586504        0.0989686052
 C         -0.2567107644       -0.9661178421       -0.0751406958
 C          0.4012186962        0.0696692874       -0.7404423298
 C          1.8531008599        0.0755912234       -0.8742304685
 C          2.4282437838        0.3921077186       -2.1257506636
 N          3.7503758755        0.4831907382       -2.3125401979
 C          4.5301957449        0.2465207751       -1.3022876999
 O          5.8685241837        0.4229291022       -1.3291939410
 C          6.3122597498        0.1294879257       -0.0765399795
 N          7.5588832108        0.2097051404        0.2751924360
 C          7.8611967738       -0.0791896029        1.5527724778
 C          6.8959697498       -0.4369457560        2.4866335981
 C          5.5661622375       -0.5284212630        2.1265312080
 C          5.2343698527       -0.2336802218        0.7862785567
 C          4.0779854542       -0.1685596525       -0.0050019354
 C          2.6826296002       -0.2396344879        0.1905788023
 C         -0.3341452747        1.1461024272       -1.2700176706
 C         -1.6955714136        1.2572267238       -1.0818403891
 C         -2.3387128261        0.2516331732       -0.3688493548
 C         -5.8601662732        0.7405590586       -0.8909009662
 C         -6.8230392780        1.7084476512       -1.1062121362
 H         -7.3473966289        3.7747216991       -0.9016179881
 H         -5.2102936584        4.3889167021        0.1699614007
 H         -3.4966587443        2.6665195955        0.5823328961
 H         -5.9517328579       -1.1200120501        1.0720886318
 H         -5.7961448755       -3.3277431253        2.1632225162
 H         -3.6563014772       -4.5093245838        2.3196865332
 H         -1.5860170077       -3.5049561403        1.4156140965
 H          0.2989018423       -1.8157750727        0.2907704450
 H          1.8217298293        0.4951518676       -3.0098020968
 H          8.9066112288       -0.0125607802        1.8060532615
 H          7.2041284445       -0.6479796628        3.4991928291
 H          4.8015293093       -0.8160516489        2.8307224746
 H          2.2794554973       -0.4579374902        1.1667439365
 H          0.1956522202        1.9184413709       -1.8057884412
 H         -2.2435122603        2.0964459785       -1.4821601791
 H         -6.0251653599       -0.2784548356       -1.2069642910
 H         -7.7557138386        1.4373702054       -1.5777352243
  49
        -81.41406746
 C         -6.5790348278        3.0947013012       -0.3651798001
 C         -5.8363397030        2.9899979829        0.8000633514
 C         -4.8806620209        2.0002828939        0.9328468092
 C         -4.6585395218        1.1072615319       -0.1126791759
 N         -3.6692026464        0.1206229984       -0.0080661852
 C         -3.8337913693       -1.2194084429       -0.3202202105
 C         -4.9905458513       -1.9093405985       -0.6379781742
 C         -4.8834922725       -3.2730430399       -0.8753102278
 C         -3.6587669744       -3.9263364599       -0.7893567777
 C         -2.5026520622       -3.2436582273       -0.4520926547
 C         -2.5858390810       -1.8779692038       -0.2086124142
 C         -1.6302063302       -0.8791806963        0.1788999365
 C         -0.2607937149       -0.8977474329        0.3837765169
 C          0.3888915403        0.2887941539        0.7269769608
 C          1.8399781254        0.3364397387        0.8650133510
 C          2.4056946158        1.0003652725        1.9767198330
 N          3.7271141296        1.1380586471        2.1408087420
 C          4.5141415150        0.6188970922        1.2490315282
 O          5.8532232774        0.7919016639        1.2365392004
 C          6.3054778055        0.1502623617        0.1246977552
 N          7.5550917132        0.1220666238       -0.2238087364
 C          7.8662101577       -0.5210241035       -1.3626673103
 C          6.9059277377       -1.1255133899       -2.1654353323
 C          5.5729853901       -1.1061463441       -1.8064386944
 C          5.2322554189       -0.4412009996       -0.6082189669
 C          4.0705148736       -0.1494624550        0.1206772869
 C          2.6762469619       -0.2714516527       -0.0576634083
 C         -0.3490158832        1.4751048089        0.8877532324
 C         -1.7087568142        1.5209539494        0.6607347397
 C         -2.3516976881        0.3398105250        0.3077255397
 C         -5.4102040745        1.2094318343       -1.2818322391
 C         -6.3658057629        2.1995454253       -1.4018533736
 H         -7.3223030409        3.8706372579       -0.4653506596
 H         -6.0064688281        3.6800737858        1.6127766165
 H         -4.3159060984        1.9013902093        1.8476156843
 H         -5.9467725615       -1.4109806825       -0.6871588692
 H         -5.7699186401       -3.8354905175       -1.1258873134
 H         -3.6137388762       -4.9878825616       -0.9814491688
 H         -1.5575171336       -3.7580469382       -0.3727922162
 H          0.3005848585       -1.8130383377        0.2763347471
 H          1.7923687600        1.3565338690        2.7871843997
 H          8.9141317037       -0.5343804041       -1.6138392038
 H          7.2207645534       -1.6174100424       -3.0730109647
 H          4.8119523408       -1.5795053645       -2.4064744650
 H          2.2798382171       -0.7611463619       -0.9329723076
 H          0.1789105342        2.3787921299        1.1504564144
 H         -2.2488996237        2.4520926857        0.7348887084
 H         -5.2201571143        0.5266982926       -2.0965160294
 H         -6.9401381166        2.2792392961       -2.3126029484
