  96
  -158.266840845300       0.390661128402756      !
 C          7.2721553238       -4.7382088327       -0.0794617284
 C          7.9566157556       -3.5332129212       -0.1213536333
 C          7.2608055887       -2.3402582913       -0.1063314906
 C          5.8682275358       -2.3462199518       -0.0501541596
 C          5.1275380188       -1.0863823520       -0.0331307207
 N          5.8172538235        0.0501247652       -0.0057537212
 C          5.1035351631        1.1714449565        0.0183814748
 C          5.8152609201        2.4477511433        0.0435193877
 C          7.2078714152        2.4749075898        0.0888744963
 C          7.8744530894        3.6843085585        0.1152946688
 C          7.1607320236        4.8727755184        0.0961336688
 C          5.7753313988        4.8511901628        0.0495034248
 C          5.1023883108        3.6455515078        0.0233401042
 N          3.7719228362        1.2026765742        0.0227183924
 C          3.1667005413        0.0216800454       -0.0114578547
 C          1.7031930229        0.0079264166       -0.0105587274
 C          0.9977615421        1.1725125052        0.2691729697
 C         -0.3883178037        1.1699549965        0.2750318681
 N         -1.0801824736        2.3545097619        0.5594146427
 C         -2.1661336387        2.4868771594        1.4102029095
 C         -2.6181344469        1.6192345386        2.3922639878
 C         -3.7407334886        1.9873293648        3.1083581347
 C         -4.3831581651        3.2020617315        2.8797121525
 C         -3.8970978952        4.0999019037        1.9509108389
 C         -2.7742938676        3.7454434204        1.2154296346
 C         -1.9973401599        4.4177798587        0.2122099775
 N         -2.1550886484        5.6190927500       -0.3204022211
 C         -1.2796845912        5.9751682796       -1.2413650736
 C         -0.2303188361        5.1694469013       -1.6807003852
 C         -0.0535473351        3.9065124456       -1.1389795268
 C         -0.9553492124        3.5270543860       -0.1583620837
 C         -1.0923916980       -0.0150713466       -0.0129793225
 N         -2.4908043391       -0.0192182238       -0.0299127199
 C         -3.2909353503        0.8264694373       -0.7825592457
 C         -2.9243952107        1.7518563588       -1.7476998247
 C         -3.9301400122        2.4717915108       -2.3632860813
 C         -5.2711732903        2.2585795014       -2.0534325736
 C         -5.6446841514        1.2965560537       -1.1367850680
 C         -4.6486089847        0.5693216429       -0.4999207645
 C         -4.6669616965       -0.4987360045        0.4592842568
 N         -5.6934272807       -1.1043420387        1.0340721825
 C         -5.4055131288       -2.0575158930        1.8996246390
 C         -4.1103432463       -2.4232452218        2.2618743538
 C         -3.0251704788       -1.7898709469        1.6804680663
 C         -3.3134434739       -0.8284522377        0.7260583145
 C         -0.3695590226       -1.1911741889       -0.2840817523
 N         -1.0397530128       -2.3932844015       -0.5465486695
 C         -0.8652392962       -3.5646671431        0.1775492211
 C          0.0601939518       -3.8580112159        1.1683437113
 C         -0.0023677963       -5.1072136004        1.7572286542
 C         -0.9647336947       -6.0431549198        1.3838601114
 C         -1.9009033761       -5.7498002549        0.4130545968
 C         -1.8536268185       -4.5020945399       -0.1945120544
 C         -2.6601986590       -3.8650451371       -1.1972306058
 N         -3.7113667794       -4.3241740449       -1.8579332561
 C         -4.2492635581       -3.5099688221       -2.7455955376
 C         -3.7495364695       -2.2453672056       -3.0540036203
 C         -2.6431305654       -1.7560219481       -2.3811137494
 C         -2.1146796839       -2.5699577091       -1.3922120201
 C          1.0171701539       -1.1695426456       -0.2819957316
 N          3.7968819797       -1.1461954066       -0.0439142378
 C          5.1846734551       -3.5604972019       -0.0078620563
 C          5.8870031413       -4.7495547595       -0.0221928925
 H          7.8189626842       -5.6696568796       -0.0917090159
 H          9.0357240344       -3.5275620529       -0.1662513311
 H          7.7757679920       -1.3931309857       -0.1391601439
 H          7.7459594977        1.5402823848        0.1052377485
 H          8.9536963648        3.7044399794        0.1516762520
 H          7.6847745827        5.8170689866        0.1172739921
 H          5.2211059444        5.7781512082        0.0337765466
 H          4.0249046536        3.6104593586       -0.0138511577
 H          1.5403053409        2.0716531567        0.5128864770
 H         -2.1067003992        0.6921635749        2.6025622151
 H         -4.1239608922        1.3181309395        3.8642071688
 H         -5.2625572142        3.4475535251        3.4553110738
 H         -4.3630467534        5.0587250838        1.7899481757
 H         -1.4244234851        6.9616437714       -1.6607864150
 H          0.4398514060        5.5302437282       -2.4455663782
 H          0.7426013457        3.2562115424       -1.4734863672
 H         -1.8911460746        1.9039737624       -2.0232769643
 H         -3.6671849876        3.2115878279       -3.1046428563
 H         -6.0256037299        2.8459136711       -2.5542631730
 H         -6.6799230835        1.0978153329       -0.9109510988
 H         -6.2583478443       -2.5503911604        2.3459403358
 H         -3.9537808195       -3.1937697811        3.0003108109
 H         -2.0141264782       -2.0369100203        1.9712388113
 H          0.8012206486       -3.1367503537        1.4797096360
 H          0.7103182021       -5.3601216005        2.5284245009
 H         -0.9772282814       -7.0072482821        1.8695335408
 H         -2.6602240266       -6.4579506279        0.1227058289
 H         -5.1189760676       -3.8951894915       -3.2599696744
 H         -4.2205179393       -1.6526512473       -3.8223123616
 H         -2.2170705950       -0.7949318961       -2.6282301676
 H          1.5740516674       -2.0610081760       -0.5212965156
 H          4.1069718433       -3.5513259067        0.0383502065
 H          5.3558931962       -5.6894660189        0.0106398963
  96
  -158.266617771500       0.308519472250127      !
 C          7.2906306494       -4.6333250202       -0.9007674988
 C          5.9045410703       -4.6437055416       -0.9283369777
 C          5.1986348136       -3.4765847792       -0.7112473242
 C          5.8791365255       -2.2853924208       -0.4644891352
 C          5.1368004050       -1.0493123750       -0.2246391935
 N          5.8278389300        0.0626351935        0.0059632372
 C          5.1162479943        1.1605936175        0.2415702256
 C          5.8350284719        2.4117068048        0.4743575188
 C          7.2272094674        2.4403440129        0.4127850868
 C          7.9039454263        3.6259173902        0.6220080331
 C          7.2006558066        4.7892963684        0.8945718729
 C          5.8159635859        4.7658441730        0.9586158371
 C          5.1327375571        3.5839129006        0.7495234144
 N          3.7850265133        1.1876882624        0.2752977812
 C          3.1770193011        0.0362541192        0.0152140807
 C          1.7127743159        0.0217913987        0.0177230579
 C          1.0044145245        1.1673322057        0.3618546544
 C         -0.3822968650        1.1632131091        0.3645070974
 N         -1.0782839485        2.3212617918        0.7378842758
 C         -0.9469146324        2.9569331160        1.9650598051
 C         -0.0309268516        2.7288677893        2.9812910221
 C         -0.1412796173        3.4906908703        4.1296673896
 C         -1.1403912082        4.4508031245        4.2757781742
 C         -2.0657185848        4.6699934513        3.2754831108
 C         -1.9711257540        3.9181368214        2.1120083888
 C         -2.7556903241        3.8622632526        0.9107074308
 N         -3.8266832356        4.5584803511        0.5634930490
 C         -4.3367194288        4.2985346217       -0.6250462905
 C         -3.7901069302        3.3914297764       -1.5319142305
 C         -2.6629573982        2.6646984020       -1.1886238868
 C         -2.1621400454        2.8719589729        0.0864094583
 C         -1.0834454199       -0.0012657421        0.0018024237
 N         -2.4817777516       -0.0105643313       -0.0270813455
 C         -3.2623287655       -0.3724492435       -1.1140880365
 C         -2.8738288287       -0.6713779225       -2.4109401317
 C         -3.8615446842       -1.0054246948       -3.3172638163
 C         -5.2068099376       -1.0113979549       -2.9565856478
 C         -5.6034727045       -0.6523769624       -1.6841468434
 C         -4.6254893485       -0.3233290686       -0.7557268022
 C         -4.6685271710        0.1110434122        0.6119381417
 N         -5.7086754514        0.3222529443        1.4019294713
 C         -5.4430306529        0.7108379358        2.6344953576
 C         -4.1567598333        0.8657559606        3.1481494658
 C         -3.0571839853        0.6346015749        2.3391491409
 C         -3.3229366039        0.2861159026        1.0253032061
 C         -0.3580271288       -1.1598974045       -0.3362128207
 N         -1.0301401430       -2.3346934734       -0.6999514812
 C         -2.1231846505       -2.8872147981       -0.0509276908
 C         -2.5894417947       -2.6484748164        1.2325376821
 C         -3.7179848834       -3.3309795363        1.6437967327
 C         -4.3525558413       -4.2531478391        0.8145162475
 C         -3.8525719879       -4.5452303641       -0.4383931095
 C         -2.7232241614       -3.8647989390       -0.8730469050
 C         -1.9350759088       -3.9221811088       -2.0719950268
 N         -2.0841201433       -4.6739680766       -3.1509979502
 C         -1.2020073989       -4.5004266960       -4.1169552837
 C         -0.1536581783       -3.5829388660       -4.0675185886
 C          0.0144594569       -2.7836933320       -2.9482342172
 C         -0.8949058899       -2.9674694024       -1.9197020119
 C          1.0277915971       -1.1391945493       -0.3231724206
 N          3.8061739529       -1.1029822262       -0.2492251267
 C          7.2726907390       -2.2803384395       -0.4387471842
 C          7.9722899766       -3.4510687324       -0.6560407294
 H          7.8401708330       -5.5478751074       -1.0685820663
 H          5.3756234781       -5.5659789150       -1.1186871210
 H          4.1201535770       -3.4677311738       -0.7267644757
 H          7.7570509320        1.5257644220        0.1980680183
 H          8.9826714660        3.6470066876        0.5724020951
 H          7.7323716475        5.7154850066        1.0564316851
 H          5.2701618261        5.6733227463        1.1712660063
 H          4.0556095658        3.5486365759        0.7936563772
 H          1.5448626550        2.0677497709        0.6049870260
 H          0.7386691230        1.9770252262        2.8884695273
 H          0.5629893329        3.3337706906        4.9332822082
 H         -1.1898368174        5.0237981026        5.1894329196
 H         -2.8528814458        5.3994832936        3.3786849893
 H         -5.2234114535        4.8618598648       -0.8814101093
 H         -4.2417048583        3.2618137605       -2.5028265162
 H         -2.2015647748        1.9821399702       -1.8869511116
 H         -1.8373735835       -0.6375973005       -2.7132999941
 H         -3.5810307188       -1.2627011166       -4.3277840849
 H         -5.9466424572       -1.2846194234       -3.6934265235
 H         -6.6432136934       -0.6195546542       -1.4011431089
 H         -6.3072056504        0.8943691369        3.2581681048
 H         -4.0179711741        1.1583979858        4.1770535352
 H         -2.0522069992        0.7181824963        2.7273618184
 H         -2.0848918016       -1.9614383910        1.8949862688
 H         -4.1127521278       -3.1459009947        2.6316783007
 H         -5.2374261037       -4.7579409487        1.1710183115
 H         -4.3132501816       -5.2823767531       -1.0761616057
 H         -1.3401205274       -5.1266550520       -4.9880160038
 H          0.5226661517       -3.4945758353       -4.9036306970
 H          0.8100599154       -2.0540014089       -2.8912939153
 H          1.5866591140       -2.0309315632       -0.5566547355
 H          7.7855896336       -1.3514850842       -0.2449204464
 H          9.0521233523       -3.4458138627       -0.6344131536
  96
  -158.266593886600       0.300819399347117      !
 C          7.2627874460       -4.7072713664        0.5784339477
 C          5.8763536415       -4.7142485979        0.5904255130
 C          5.1763480028       -3.5340344507        0.4335247126
 C          5.8637112083       -2.3332871023        0.2617093279
 C          5.1254405299       -1.0815497150        0.1071904378
 N          5.8165844430        0.0488142187       -0.0047519224
 C          5.1052303582        1.1665381143       -0.1121041463
 C          5.8201359717        2.4315023131       -0.2686419444
 C          7.2133492167        2.4515409153       -0.2974643198
 C          7.8837192368        3.6488307850       -0.4553511107
 C          7.1730922984        4.8322126340       -0.5849955083
 C          5.7870290090        4.8177508504       -0.5558112420
 C          5.1101934240        3.6241417561       -0.3991044629
 N          3.7733583281        1.2025775564       -0.0898892046
 C          3.1677207800        0.0253051400        0.0009591368
 C          1.7039301199        0.0114873356        0.0041597716
 C          0.9975851962        1.1683148228        0.3106714166
 C         -0.3887389159        1.1612137540        0.3220261355
 N         -1.0848389467        2.3314293536        0.6515976982
 C         -2.1622152287        2.4260842760        1.5182121819
 C         -2.5998615973        1.5192427861        2.4708583562
 C         -3.7147613528        1.8554585737        3.2142328190
 C         -4.3636197855        3.0759195935        3.0406066175
 C         -3.8930826215        4.0098096492        2.1398106419
 C         -2.7785034897        3.6878506443        1.3772324539
 C         -2.0178215705        4.3999451369        0.3890183151
 N         -2.1907685979        5.6171270149       -0.1013102015
 C         -1.3305491961        6.0094793112       -1.0218394693
 C         -0.2812323538        5.2264974045       -1.5009265128
 C         -0.0883706439        3.9477162954       -1.0035056666
 C         -0.9752462849        3.5293168633       -0.0251574237
 C         -1.0902999237       -0.0151139829       -0.0045785310
 N         -2.4887079094       -0.0210815952       -0.0242061463
 C         -3.2888225017        0.8562337089       -0.7399169734
 C         -2.9227054648        1.8149571698       -1.6721605017
 C         -3.9277593295        2.5638811889       -2.2534505157
 C         -5.2680512577        2.3473414582       -1.9426900490
 C         -5.6417539450        1.3526440010       -1.0615416180
 C         -4.6461851410        0.5956592807       -0.4593839674
 C         -4.6648782450       -0.5087435189        0.4578079941
 N         -5.6916152270       -1.1304785005        1.0145833242
 C         -5.4046387046       -2.1185106756        1.8406407767
 C         -4.1096096017       -2.5053963397        2.1803788857
 C         -3.0238996265       -1.8548696833        1.6187191583
 C         -3.3115261944       -0.8549671027        0.7045860604
 C         -0.3656392127       -1.1809079706       -0.3115951791
 N         -1.0363551274       -2.3690502914       -0.6294743047
 C         -0.8757428038       -3.5728931198        0.0416496936
 C          0.0316359641       -3.9133992547        1.0340627795
 C         -0.0429770668       -5.1884442057        1.5630422684
 C         -0.9995401492       -6.1041597262        1.1292326797
 C         -1.9168771981       -5.7649799360        0.1553570011
 C         -1.8571544190       -4.4906927657       -0.3930054477
 C         -2.6423683564       -3.8072290897       -1.3821069128
 N         -3.6762688994       -4.2353138476       -2.0893997178
 C         -4.1924716116       -3.3812153141       -2.9521919061
 C         -3.6880551306       -2.1029568892       -3.1881906520
 C         -2.5998371991       -1.6448308358       -2.4654900284
 C         -2.0933872000       -2.5047546255       -1.5044926371
 C          1.0210321474       -1.1601891749       -0.2971800362
 N          3.7947304729       -1.1410312949        0.0904586070
 C          7.2574443027       -2.3318817358        0.2490200813
 C          7.9509007071       -3.5157913787        0.4071415385
 H          7.8078155030       -5.6316350223        0.7017364061
 H          5.3425256702       -5.6436451771        0.7245395348
 H          4.0976999441       -3.5210142009        0.4427519217
 H          7.7490652835        1.5208531520       -0.1959730254
 H          8.9634739889        3.6633991636       -0.4779462353
 H          7.7000884459        5.7669793527       -0.7088822156
 H          5.2355771237        5.7408952327       -0.6576674338
 H          4.0320459605        3.5933637141       -0.3786775006
 H          1.5379005558        2.0634322380        0.5741688466
 H         -2.0828708959        0.5865806088        2.6389859968
 H         -4.0859476358        1.1567072718        3.9491901913
 H         -5.2363102627        3.2961291899        3.6364498130
 H         -4.3645283535        4.9720972765        2.0211046515
 H         -1.4883701471        7.0079244149       -1.4071462048
 H          0.3758997116        5.6172847323       -2.2624648415
 H          0.7076990730        3.3142214777       -1.3691985010
 H         -1.8902332382        1.9708335083       -1.9485851509
 H         -3.6648656332        3.3301114986       -2.9675194198
 H         -6.0220484104        2.9581873253       -2.4154257600
 H         -6.6768670010        1.1517063146       -0.8368674017
 H         -6.2580466866       -2.6235978497        2.2722016129
 H         -3.9530608492       -3.3056695372        2.8865214109
 H         -2.0130537841       -2.1189220495        1.8945646562
 H          0.7674333709       -3.2082035829        1.3913455739
 H          0.6551848854       -5.4784682729        2.3345075946
 H         -1.0223461449       -7.0896131551        1.5696525811
 H         -2.6706948965       -6.4580820207       -0.1820198691
 H         -5.0473991792       -3.7431588691       -3.5067537060
 H         -4.1409981151       -1.4751130617       -3.9392929295
 H         -2.1703429287       -0.6723883015       -2.6556267496
 H          1.5795603862       -2.0455933667       -0.5551637385
 H          7.7753595941       -1.3952667648        0.1160076985
 H          9.0309145769       -3.5136541162        0.3964454075
