  49
        -80.71271308
 C          4.9530413138        1.1954725077        2.1793173783
 C          4.8473766266        0.8258552248        0.6993877954
 C          4.9479201849        2.0766447510       -0.1830324220
 C          5.9676105377       -0.1500445281        0.3310464536
 N          3.5647497773        0.1718916322        0.4566432123
 C          2.3559471045        0.8101185099        0.7458693269
 O          2.2744402968        1.8622062978        1.4035239826
 C          1.2656423963        0.1075655001        0.1653148528
 C         -0.0965131309        0.4215739958        0.2959755022
 C         -1.0364836137       -0.4061609806       -0.2768901741
 N         -2.3908506253       -0.1187674972       -0.1336514311
 C         -2.9773438452        1.1161035718       -0.3227909998
 C         -2.4058332604        2.3079266333       -0.7522321598
 C         -3.2354234542        3.4074785577       -0.8884892805
 C         -4.5980506497        3.3251427804       -0.6158918479
 C         -5.1795402452        2.1302512251       -0.2164660204
 C         -4.3692132319        1.0172617195       -0.0738102738
 C         -4.6207504785       -0.3548183052        0.2904637953
 C         -5.7588674169       -1.0528908632        0.6540722105
 C         -5.6360276514       -2.3969843216        0.9770329163
 C         -4.3981424552       -3.0333681770        0.9551003129
 C         -3.2460185963       -2.3546827216        0.5977571238
 C         -3.3679046964       -1.0164367116        0.2424537877
 C         -0.6507947453       -1.5669857149       -1.0246843427
 C          0.6953599484       -1.8556845938       -1.1855953998
 C          1.6332332451       -1.0341346281       -0.6163196084
 S          3.3883458072       -1.0759048970       -0.6915932562
 O          3.9377932735       -2.2941589674       -0.1660452056
 O          3.8955609010       -0.6546808353       -1.9713659270
 H          4.8878578619        0.3019838395        2.7951659240
 H          4.1370263621        1.8634506847        2.4476942217
 H          5.8991639369        1.6949280943        2.3684340313
 H          5.9174888824        2.5500104070       -0.0546085587
 H          4.1679378860        2.7811779551        0.0965398805
 H          4.8206960746        1.7970625827       -1.2264936850
 H          6.9286014562        0.3018082601        0.5649904871
 H          5.9312573943       -0.3841386630       -0.7285990129
 H          5.8584759671       -1.0756748244        0.8894827601
 H         -0.3894092821        1.2652277660        0.9012295117
 H         -1.3538630218        2.3721350371       -0.9822570915
 H         -2.8161472155        4.3459649296       -1.2164766325
 H         -5.2133110244        4.2046226233       -0.7292733265
 H         -6.2398026802        2.0674971395       -0.0260758197
 H         -6.7186104764       -0.5609564289        0.6898536425
 H         -6.5127319836       -2.9573997234        1.2636907367
 H         -4.3325411546       -4.0740433132        1.2323144360
 H         -2.2836676619       -2.8424937348        0.6108310634
 H         -1.4077422085       -2.1438310320       -1.5286619887
 H          1.0107292619       -2.7053913518       -1.7710229575
