49
 energy: -80.845573779623 gnorm: 0.000073368947 xtb: 6.7.1 (edcfbbe)
C            5.91422557901113       -0.54019369799692       -0.43023259536576
C            4.90101312517014        0.27797022934488        0.36778290845980
C            5.06898437154806       -0.00212579279619        1.86408966196516
C            5.09094130763946        1.76656135035677        0.06077620229339
N            3.53754877934618       -0.12590315935355       -0.03605472157637
C            2.41425991381547        0.45320459303200        0.46746577626190
O            2.37681157540132        1.37153111090503        1.26321888731254
C            1.20100991175858       -0.19510199235541       -0.09654052214199
C           -0.09867365746133        0.18408367824998        0.18675218149400
C           -1.15043761832748       -0.51804998214386       -0.41261569250027
N           -2.46553223306805       -0.14699760155529       -0.16632122682181
C           -2.96131363267486        1.15041209059925       -0.19654183017283
C           -2.31710684120769        2.33858352805312       -0.50737975018762
C           -3.06751470665933        3.50066625493133       -0.50446884612042
C           -4.42903907572489        3.48702240567494       -0.21284754913352
C           -5.08175556792307        2.30254436181653        0.06790326464712
C           -4.34754239747588        1.12382498090326        0.07120588919934
C           -4.70079149919644       -0.25375096078510        0.28750697796422
C           -5.89236091578107       -0.88863129971408        0.61254858872452
C           -5.88548287600150       -2.25905138812419        0.78560348291160
C           -4.70669386274234       -2.98931036258480        0.65769469534202
C           -3.50915247078758       -2.37772571725020        0.33286866160059
C           -3.51688889454879       -1.00623017484820        0.12602992506465
C           -0.87080912391528       -1.59116695379009       -1.26887535054717
C            0.43448266830219       -1.97095275899547       -1.53848093774954
C            1.45536694486107       -1.25770345429540       -0.94756218617265
S            3.21384552848959       -1.44828809490392       -1.07425402771766
O            3.66532263196895       -2.66778553721312       -0.46805154761209
O            3.68606947501769       -1.16441999121764       -2.39784151503917
H            5.79154140286270       -0.36967975944780       -1.49660472589111
H            5.79005933344226       -1.60233717025806       -0.23653453691672
H            6.91867514637270       -0.24462641213328       -0.13864131549337
H            6.07438382757675        0.26610110704872        2.17533174225165
H            4.90621968868669       -1.05924962818158        2.06431961319905
H            4.35529360711562        0.58151330011557        2.43989197596505
H            6.10283169080896        2.06240634780182        0.32183603527906
H            4.39014257600292        2.36650338680662        0.63450668253606
H            4.93081003679014        1.95267520176971       -0.99906694968118
H           -0.28225788168608        0.99457615662489        0.87456539682773
H           -1.26732627965362        2.36425795971771       -0.75603908449218
H           -2.58550335875315        4.43847676159711       -0.73816277310108
H           -4.97983994178652        4.41582558027052       -0.21788506219162
H           -6.14105058772861        2.28785867609448        0.27419326139662
H           -6.80064958585709       -0.31828294205353        0.73347067626023
H           -6.80154850433608       -2.77319171527744        1.03592011178053
H           -4.72539398983111       -4.05694563887033        0.81947154229539
H           -2.59987009332367       -2.95426071615536        0.26169617985348
H           -1.68713496090279       -2.11293869760330       -1.74313642434309
H            0.65183743535817       -2.79169946183638       -2.20251014993234
