49
 energy: -80.751058198147 gnorm: 0.000080463674 xtb: 6.7.1 (edcfbbe)
C            5.97557174762877       -0.16729320593322        0.29315558379619
C            4.87049603959107        0.80443053451081        0.71289950930109
C            4.98150495686448        1.08162694513517        2.21556252308021
C            4.99769770643459        2.10473569198244       -0.09157155822553
N            3.57090934729377        0.18821293048158        0.43182371168812
C            2.36216460493864        0.83402770244897        0.72891375037274
O            2.28894859227148        1.88471337373275        1.39593344295509
C            1.26578663652093        0.13637601833997        0.15682528180096
C           -0.09686337581416        0.44562804896671        0.29945735277140
C           -1.04274936914396       -0.37739810782522       -0.27336494475796
N           -2.39572867831685       -0.09510762598386       -0.12467512308345
C           -2.98752687026446        1.13798907255818       -0.30105904668691
C           -2.42056164927891        2.34020720204244       -0.71334832074595
C           -3.25679372302912        3.43696708195107       -0.83929402624923
C           -4.62006031073633        3.34160137947391       -0.57626004333330
C           -5.19776482439963        2.13520861438594       -0.19487094189701
C           -4.38120332859711        1.02819663258282       -0.06124461766727
C           -4.62612595499659       -0.35302279019395        0.28506481300139
C           -5.76005399652351       -1.06145929373701        0.63404207056457
C           -5.62820780907886       -2.41183000350711        0.94164284515383
C           -4.38603651269751       -3.03880990674207        0.92001954668034
C           -3.23612350134696       -2.34706109034554        0.57795298874133
C           -3.36726455547547       -1.00444820591706        0.23476324786923
C           -0.66060621107917       -1.53454792005935       -1.03364873340538
C            0.68348945096354       -1.81945007809091       -1.20785067806352
C            1.62532750923979       -1.00283623999655       -0.63464633031424
S            3.37591238391186       -1.04862429636465       -0.71064082973989
O            3.91876532568813       -2.28573701936327       -0.20493213920123
O            3.88187014570768       -0.63996861975838       -2.00330231808460
H            5.92716759728844       -0.36015681595169       -0.77549501773834
H            5.86442485524521       -1.11527750257023        0.81357740036341
H            6.94384262441229        0.26418743260543        0.53385677304881
H            5.94360251109469        1.53655213884081        2.43340886864296
H            4.88868804339003        0.15263474909965        2.77361247561116
H            4.18814897793833        1.75715214106766        2.52651901363793
H            5.97270199982972        2.55386440551662        0.07540456916562
H            4.22491892170518        2.80419933945447        0.22007430752580
H            4.87759353246670        1.89141358748175       -1.15235738134598
H           -0.38211925217283        1.28411019375490        0.91587116289385
H           -1.36803687849979        2.41409785443244       -0.93668725924397
H           -2.84086344997251        4.38225091595073       -1.15196638042792
H           -5.24103332873822        4.21786336806675       -0.68284696565198
H           -6.25854552877791        2.06496907189035       -0.01325052343813
H           -6.72370730880123       -0.57868772477317        0.67215825704142
H           -6.50277831709112       -2.98137826183077        1.21662055806303
H           -4.31377661428640       -4.08224709339609        1.18502758340965
H           -2.27043605445237       -2.82677443540487        0.59267718880570
H           -1.41868509404221       -2.10710746184732       -1.53938415651712
H            0.99778554426222       -2.66363082093226       -1.80207409026219
