49
 energy: -80.751055777658 gnorm: 0.000057541320 xtb: 6.7.1 (edcfbbe)
C            4.97772806208298        1.15746235891504        2.18446731474234
C            4.86601722786518        0.82570037457973        0.69302734893350
C            4.99116210034688        2.09609221649332       -0.15817447213751
C            5.97225483321838       -0.15926023658949        0.30855648802122
N            3.56729776718325        0.19773322110045        0.43458591127928
C            2.35734156907190        0.85081735346183        0.71123178470746
O            2.28202430487167        1.92012123780671        1.34774172626552
C            1.26234984732239        0.13627614398130        0.15755507786555
C           -0.10077445669954        0.44723457516885        0.29138797938261
C           -1.04530553160125       -0.38981074895670       -0.26326461735666
N           -2.39874751142570       -0.10687267600555       -0.12204536951677
C           -2.99269280792332        1.12209150549934       -0.31997399671582
C           -2.42741427364880        2.31918790051020       -0.74921212471488
C           -3.26557041943027        3.41219874032202       -0.89362893332948
C           -4.62927218657207        3.31804452974703       -0.63252510135863
C           -5.20546202334300        2.11609097548271       -0.23528154115544
C           -4.38691048534074        1.01298365390968       -0.08291443279653
C           -4.63024314612715       -0.36328253220569        0.28348949236388
C           -5.76434402272621       -1.06908185053994        0.63728273027874
C           -5.63100017890901       -2.41430090740962        0.96602601358237
C           -4.38711704207244       -3.03820345546685        0.96139085510622
C           -3.23707766515673       -2.34888351027158        0.61490216101267
C           -3.36970647723757       -1.01242670272174        0.24887754231020
C           -0.66056897722917       -1.56371870684669       -0.99631881989437
C            0.68395385690452       -1.85270795671958       -1.15982239283235
C            1.62422831603984       -1.02248948483571       -0.60386072619342
S            3.37501417489581       -1.06755692728536       -0.67702120177225
O            3.91900207243569       -2.29092524378709       -0.14018575273010
O            3.88122260788325       -0.69082177952860       -1.97921843745145
H            4.89018838470759        0.24898893052388        2.77613608153268
H            4.18174141020938        1.84016600641709        2.47207407851048
H            5.93797352601015        1.62462050837464        2.38382300665422
H            5.96636178241621        2.55124814603433       -0.00962247610053
H            4.21881746620164        2.80624211113176        0.12949883045661
H            4.86903268048786        1.84433098002209       -1.21026360778188
H            6.93986174741274        0.27974566503860        0.53804847473698
H            5.92705908462080       -0.38695236054121       -0.75335684411605
H            5.85935053713338       -1.08975980531677        0.85927583407006
H           -0.38727270087799        1.29932796319047        0.88823746401500
H           -1.37465032283143        2.39224894847767       -0.97158676101495
H           -2.85064934426118        4.35367658430414       -1.21891056260947
H           -5.25169089400029        4.19142539365884       -0.75331400416198
H           -6.26654402092841        2.04622789647209       -0.05528033823975
H           -6.72935446535492       -0.58819088108092        0.66270824193099
H           -6.50573077617650       -2.98191382678411        1.24447318174666
H           -4.31356903697601       -4.07703108588576        1.24356496696549
H           -2.27027887845357       -2.82570279446861        0.64355745378646
H           -1.41686704160996       -2.14754481270896       -1.49170836235283
H            0.99957907808408       -2.71111566481045       -1.73259622149799
