97
 energy: -158.701977026771 gnorm: 0.000068817773 xtb: 6.7.1 (edcfbbe)
C            7.18300683700337        4.78626698320321       -0.18812663502013
C            7.87317259606666        3.58441127647951       -0.24010212259704
C            7.18454778452850        2.38754664514870       -0.19735170246062
C            5.79287865436873        2.38460899874568       -0.10350454484454
C            5.06161878672379        1.12011243054806       -0.05906273997767
N            5.76160662158072       -0.01057793023761       -0.02433566844267
C            5.05833926958286       -1.13914618129183        0.01282700024926
C            5.78589924043078       -2.40584450592325        0.05495041872836
C            5.09383039961933       -3.61600253689393        0.00415285312268
C            5.78505474473539       -4.81140883242247        0.04449980706084
C            7.16884638142555       -4.81170042602135        0.13731279695741
C            7.86268813603341       -3.61195428010683        0.18912440547631
C            7.17763809286335       -2.41300361872815        0.14744320049029
N            3.72584481789910       -1.18284527748583        0.01338690476246
C            3.10949395587015       -0.00656734250937       -0.01849107817839
C            1.64540997880156       -0.00417995961550       -0.01299076180921
C            0.94459279921650       -1.18647895301550        0.19619931466442
C           -0.44202287949725       -1.19409661890857        0.20634515748993
N           -1.11455420611365       -2.40614717253367        0.41625512910500
C           -2.14353428801643       -2.64585316276023        1.31343517848695
C           -2.60738784350679       -1.85131348169763        2.35053823973242
C           -3.65217879996248       -2.33497550743337        3.11501211935012
C           -4.21156000879567       -3.58842631957366        2.87471387285857
C           -3.71781269308438       -4.40745722408849        1.87925801568142
C           -2.66969165129829       -3.93848414259845        1.09744358433819
C           -1.90437579007520       -4.51316376155607        0.02719631887341
N           -2.00828134897751       -5.70108178211971       -0.55040299138983
C           -1.16088289602785       -5.95608392886293       -1.53110855014221
C           -0.19473876573477       -5.06058009022109       -1.98724053272558
C           -0.07527236402354       -3.81214856572254       -1.39758428091694
C           -0.94644209567861       -3.53727617630358       -0.35556315754969
C           -1.15854103000933        0.00106237989204        0.00205477202303
N           -2.55368761176976        0.00469811014496        0.01189604688390
C           -3.37447028370348       -0.77157848866008       -0.79006086855697
C           -3.03560297120695       -1.64818969202723       -1.80869092536420
C           -4.06189057798357       -2.29057618600161       -2.47586317752636
C           -5.39509503755899       -2.04999627177982       -2.15597651805471
C           -5.73779646484236       -1.13952791516025       -1.17515593910385
C           -4.72302332984137       -0.48749936606437       -0.48830546004060
C           -4.71177711152995        0.51318176051747        0.54374850197840
C           -5.71132069748398        1.17275043143463        1.24559930069156
C           -5.34726258858948        2.07979316721862        2.22189854466540
C           -4.00773609675308        2.30935299197598        2.52295752760412
C           -2.99632842432518        1.65953035509874        1.84044695520101
C           -3.35689946208759        0.78678676553389        0.82594136654912
C           -0.43968120494719        1.19335068266579       -0.21110442969186
N           -1.11010247420315        2.40758816581664       -0.41486088209252
C           -2.14845342697110        2.64944637947177       -1.30063449663867
C           -2.62649234056239        1.85506075575839       -2.33141063632732
C           -3.67814363679069        2.34123745167766       -3.08482582803302
C           -4.23059279044750        3.59688596940446       -2.84001596522536
C           -3.72300255593869        4.41559101306211       -1.85127858597723
C           -2.66770222280698        3.94418346540754       -1.08067799280008
C           -1.88802077204796        4.51800856029070       -0.02038935843161
N           -1.98099167967411        5.70737792032184        0.55608696137263
C           -1.12126711603486        5.96121658892504        1.52630801209462
C           -0.15303372111060        5.06313483564422        1.97283400389786
C           -0.04490650493628        3.81317715444306        1.38425134268330
C           -0.92915871652512        3.53942514646060        0.35300797263800
C            0.94689112466531        1.18060205563090       -0.21582095562735
N            3.72927670370749        1.16782145848947       -0.05396971559034
C            5.10452213457912        3.59687940549212       -0.05265486687054
C            5.79929950986235        4.79018120055708       -0.09416918329597
H            7.72350058763780        5.72048893650084       -0.22102836234719
H            8.95041515722853        3.58231675752296       -0.31416125311922
H            7.70410641315382        1.44305482663796       -0.23844028074224
H            4.01747243487363       -3.59836269761451       -0.06881509215833
H            5.24498510793312       -5.74567363038578        0.00412742335826
H            7.70653765829002       -5.74756029875381        0.16938945355788
H            8.93998821014613       -3.61313311049603        0.26230551585516
H            7.70006836350351       -1.47009834583037        0.18861198412484
H            1.49177676145164       -2.09694470100197        0.38061722336425
H           -2.16455307764163       -0.89154874021731        2.56626507930280
H           -4.03839421749590       -1.72581132580922        3.91847119980995
H           -5.03029546184822       -3.92682656541168        3.49128729194662
H           -4.11931529122061       -5.39276141962637        1.70295729256911
H           -1.26151032439938       -6.93276650801678       -1.98531455014242
H            0.45514532052288       -5.34084404523041       -2.80140992127560
H            0.65625818205563       -3.09422378542357       -1.74144073177049
H           -2.00662470137609       -1.82072150116625       -2.08807626673301
H           -3.82011512342630       -2.98943624919214       -3.26305470865949
H           -6.16905375962315       -2.57390871228038       -2.69628222772968
H           -6.77192636729857       -0.93198439562071       -0.94743593992684
H           -6.75025652305439        0.97347538446964        1.03288830161523
H           -6.10916387637399        2.60942654443758        2.77364210831437
H           -3.74919788735529        3.00519323674644        3.30749941768611
H           -1.96200484158003        1.82313345855615        2.10519104353085
H           -2.18915431997012        0.89358199068430       -2.55078491364593
H           -4.07542651169816        1.73241527391609       -3.88312567866611
H           -5.05490859552561        3.93727167920334       -3.44799388934810
H           -4.11905898009979        5.40254484282767       -1.67194957339349
H           -1.21310449960433        6.93910616535552        1.97978009774502
H            0.50727794405480        5.34260870988757        2.77884549887038
H            0.68804036767111        3.09331158843325        1.72096019929188
H            1.49551751324705        2.08895878421593       -0.40623088024000
H            4.02817893104509        3.58253262228335        0.02119032267184
H            5.26205531864168        5.72607942324611       -0.05388325814209
