97
 energy: -158.625425750626 gnorm: 0.000049368067 xtb: 6.7.1 (edcfbbe)
C            7.20506444487950        4.83517374195846        0.26420928122095
C            7.89510846708038        3.63243725739476        0.26332447540914
C            7.20665607285338        2.43741520375808        0.18505848772479
C            5.81368370169689        2.43396362968324        0.10844204558396
C            5.08439214508864        1.17153364526315        0.02267427839433
N            5.79933373759772        0.03494927751105       -0.08503208748904
C            5.09521960907699       -1.10998790729901       -0.17705188588264
C            5.83665834695281       -2.36385104947767       -0.28027544203090
C            5.16155800474764       -3.58540675125192       -0.28047903928908
C            5.86727784582440       -4.76849426741426       -0.37198719443884
C            7.25148605024688       -4.74930609360104       -0.46502779244717
C            7.92871864928387       -3.53929816182065       -0.46589349299151
C            7.22863690498998       -2.35207296084139       -0.37347591815536
N            3.78775927889820       -1.14933339958423       -0.17777234246052
C            3.10836939510345        0.01916752885312       -0.05100401784908
C            1.69304455687278        0.01009476033435       -0.02752810001489
C            0.97091543901103       -1.18936427011592       -0.21559904350662
C           -0.40286240364120       -1.19990281083955       -0.19486801957757
N           -1.09403824901714       -2.41134849795623       -0.39892063797590
C           -0.95617039240639       -3.54748408431661        0.37883853650358
C           -0.07366794293025       -3.79925532790701        1.42085318948192
C           -0.16215267070918       -5.02251794784027        2.05752054481254
C           -1.10555713737587       -5.97701919891593        1.67792194446494
C           -1.99359250724201       -5.73002083113752        0.65016134137042
C           -1.92228131853265       -4.50608312279359       -0.00424210432059
C           -2.66780768006396       -3.91633955445578       -1.07850928309095
N           -3.67142599820097       -4.39847989084861       -1.79240879036079
C           -4.15043815530476       -3.63438364119921       -2.75522616207113
C           -3.63994353763268       -2.37673222236966       -3.07458872970964
C           -2.58372744064851       -1.85509392662567       -2.34717434626474
C           -2.10923087730859       -2.62604783925444       -1.29737488252176
C           -1.13299106495849       -0.00877817942557        0.02118134744512
N           -2.53564602587439       -0.01734878020570        0.04367043296109
C           -3.35956693155330        0.72437238881604       -0.77748507938684
C           -3.02474669538706        1.57947472214767       -1.81928273676203
C           -4.05463948524211        2.20217820162599       -2.49862665200663
C           -5.38633932578063        1.96903904027706       -2.16486579483234
C           -5.72626285243084        1.08771042632469       -1.15285679748822
C           -4.70973872733865        0.45427047454325       -0.45488003203151
C           -4.68758966713958       -0.51081622922468        0.61196871369327
C           -5.67469163199463       -1.15458542499445        1.34196125910838
C           -5.29353979662947       -2.03356871422951        2.34122952348919
C           -3.94946596863250       -2.25402643575240        2.63122579400224
C           -2.94825868938693       -1.62029559503863        1.91993186810866
C           -3.32500273839191       -0.76751057839211        0.89060079080238
C           -0.41166155090405        1.19189958898320        0.21301618985039
N           -1.11193290657173        2.39358779568412        0.44234225770510
C           -1.01829137116260        3.53160875378205       -0.33928641212988
C           -0.17526543905638        3.79732326570189       -1.41012866640247
C           -0.30505751470455        5.01859750866889       -2.04355278876804
C           -1.25099057460273        5.95761370314996       -1.63290672211028
C           -2.09976921057772        5.69682099475153       -0.57578734387615
C           -1.98641014825459        4.47467176410060        0.07595505869379
C           -2.68599714541721        3.87350887623272        1.17451536915307
N           -3.67278833297406        4.33984254261853        1.92154361092087
C           -4.10726735799392        3.56848980548438        2.89957290597678
C           -3.56649602309618        2.31920397374165        3.20139276684160
C           -2.52697306439412        1.81422713335927        2.43902223853970
C           -2.09999241600981        2.59232622926382        1.37419026854130
C            0.96202442353539        1.19981405164646        0.18609732388479
N            3.77696660214754        1.19612077086175        0.05565768285234
C            5.12563627211042        3.64822518242541        0.11031747656520
C            5.81978894402643        4.83920854538610        0.18698252995949
H            7.74536778452716        5.76821854060961        0.32423136097257
H            8.97356755988511        3.62779103147719        0.32374935830587
H            7.72846200829585        1.49264709646041        0.18435544312042
H            4.08467181249318       -3.58473128899303       -0.20548524962867
H            5.33851268915622       -5.71038462945235       -0.37050626786716
H            7.80086073502820       -5.67624630297612       -0.53623436159320
H            9.00630019571787       -3.52294987355294       -0.53871569243813
H            7.74031075402825       -1.40178216924017       -0.37391651389882
H            1.51912245567468       -2.09754610246741       -0.40721706029958
H            0.65646106797735       -3.06387355374627        1.72474497375426
H            0.51569271569711       -5.24276962607606        2.86881912230038
H           -1.14023635178008       -6.91990895606365        2.20220199439600
H           -2.73275530820971       -6.45679312029027        0.35246978585793
H           -4.97328776539363       -4.05503063994603       -3.31657085253471
H           -4.06172236232399       -1.81928885184654       -3.89562654929859
H           -2.14477095558795       -0.90183687373900       -2.60099084779491
H           -1.99597360913681        1.74915361013044       -2.09883772577771
H           -3.81797469198625        2.88055277027693       -3.30432028431498
H           -6.16416652683029        2.47683617093033       -2.71461994665087
H           -6.75995067249415        0.89305836169372       -0.91200096474426
H           -6.71746244481277       -0.96975049216575        1.13500129336582
H           -6.04814331509658       -2.54961878411107        2.91512607085499
H           -3.68020454793456       -2.93111730623529        3.42773383036440
H           -1.90936866915197       -1.78013338699423        2.16589119699740
H            0.55640620637007        3.07399615375429       -1.73821648156370
H            0.34193309643020        5.24953901481630       -2.87675052543715
H           -1.31876242079390        6.89944003090584       -2.15584479741524
H           -2.84062269671278        6.41135235435006       -0.25363535553404
H           -4.91761919834741        3.97603841705942        3.48810062303164
H           -3.95177448321053        1.75539228257157        4.03590451356825
H           -2.06445310851533        0.86831714551265        2.67824701813881
H            1.50443165758368        2.11508486258314        0.35960858321835
H            4.04800441895937        3.63582427104467        0.04816939071665
H            5.28105846367709        5.77543673025760        0.18665146852623
