103
 energy: -171.009519444780 gnorm: 0.000112047339 xtb: 6.7.1 (edcfbbe)
N           -1.23275405866607       -3.25389169236202        2.49704462754524
C           -1.16382915542758       -2.33799889253145        1.79030571606446
C           -1.07896735274037       -1.24025177257777        0.94981514216963
C           -2.26438932084512       -0.64003642991447        0.41445154783129
N           -3.49759038628275       -1.26088000171784        0.65008678474462
C           -4.60565005757288       -0.66379936482997        1.21921311888425
C           -4.71836967533668        0.57469236895901        1.83375749839029
C           -5.95485922044558        0.93383650349484        2.33835769470261
C           -7.04805285176605        0.07729369863142        2.25059082839073
C           -6.92734466456502       -1.17946207836560        1.68230162325854
C           -5.69678293571126       -1.56052898734135        1.17099408952043
C           -5.20498282331556       -2.76745847546127        0.55961910260268
C           -5.79084390336093       -3.98147377316700        0.23764592526406
C           -5.01409995547507       -4.95089494992279       -0.37282600568853
C           -3.67540619262133       -4.71432170092582       -0.67382878216887
C           -3.07293973345720       -3.50893891084581       -0.36766657630689
C           -3.84045104454110       -2.54116978275923        0.26578036794677
C           -2.20013947899855        0.54970589686978       -0.28175339507797
N           -3.35535128097802        1.10933062291835       -0.84198494347815
C           -4.24141208629572        0.46074413208432       -1.67992444723347
C           -4.12432296888254       -0.77820435797545       -2.29262262464335
C           -5.16342778132693       -1.19729708120586       -3.10321100306798
C           -6.28255925249391       -0.39786503663895       -3.31499936501723
C           -6.37986765722167        0.86075013652420       -2.74598857736064
C           -5.35008490479978        1.30078085885867       -1.92940600980371
C           -5.09989009277093        2.52678782004825       -1.21734401362209
C           -5.81287138205637        3.70548176129259       -1.06609614040408
C           -5.27782620165613        4.70662864197971       -0.27398148137275
C           -4.05674858061620        4.53573341275425        0.37279674624958
C           -3.33235393419031        3.36630794562048        0.24123743598112
C           -3.85263054760286        2.36761709185039       -0.57034680237064
C           -0.94734278135837        1.21376578301531       -0.48326782586587
C           -0.85780972884733        2.30593793136994       -1.33001748484891
N           -0.78016660743236        3.21552022846699       -2.04426133321926
C            0.23576757024559        0.61566482825740        0.05651664220195
N            1.47136764088717        1.24018341159194       -0.16523725610282
C            1.82125490248008        2.50680667280125        0.25518710728992
C            1.04469835140610        3.48748960559567        0.85719539444353
C            1.65794815627606        4.67570074908628        1.20239649968206
C            3.01672597182726        4.88522934680356        0.97153046051362
C            3.80289624068724        3.90525861963416        0.39540835566120
C            3.20491697724844        2.70610861418530        0.03517302114501
C            3.69645957634896        1.49681926293759       -0.55853066138732
C            4.93637943936613        1.05344505743358       -0.99460727270648
S            6.44716651216052        1.90950862545006       -0.90195118488615
C            7.28743039249975        0.55757637892430       -1.64566277507122
C            8.64215200583329        0.49755703581420       -1.91899547510588
C            9.14310386325035       -0.64897240429706       -2.51130095013049
C            8.30292774731804       -1.71378116889665       -2.82011392075134
C            6.95103402311978       -1.65078320006803       -2.54560171609571
C            6.42220161832007       -0.50647847715062       -1.95221882711748
C            5.06085733844225       -0.22275656166924       -1.58160287264133
C            3.93074364955025       -1.02459702212231       -1.76060380151567
C            2.69220364362715       -0.60819190523497       -1.32297195766404
C            2.59074518548427        0.62709545193976       -0.68610483301873
C            0.17207250533694       -0.57543793660479        0.75187030180291
N            1.32933939379244       -1.13535803476578        1.30944208347108
C            1.84625808802277       -2.37907131606734        1.00696334264282
C            1.32408379156917       -3.38027517459687        0.19981968982697
C            2.06910604312856       -4.53225947053147        0.03418516106916
C            3.31272781892824       -4.68333941295982        0.64225780369869
C            3.84859756763183       -3.67993005993848        1.43036930361957
C            3.11460158421263       -2.51895139842760        1.61673918443582
C            3.35771172371843       -1.29798296519674        2.33924867406269
C            4.40146119576724       -0.84509866568745        3.13118598962672
C            4.29107537502622        0.40168943526654        3.72277691733081
C            3.14697714094151        1.17649219433532        3.55752810329455
C            2.09539529486792        0.74616502077197        2.76911300849472
C            2.22402489008883       -0.47997655508348        2.13342937687450
H           -3.86859710694588        1.23289690581337        1.93163691900448
H           -6.06948840053041        1.89691361968906        2.81222870830326
H           -7.99936797006691        0.39437979256864        2.64986154941694
H           -7.76919604739578       -1.85311755773916        1.64293877988660
H           -6.83140675376852       -4.16264767532478        0.45790338737879
H           -5.45032871565874       -5.90533430934262       -0.62573193213262
H           -3.09526409416061       -5.48576924773567       -1.15744420458196
H           -2.03630185693280       -3.33259516937371       -0.61090168243985
H           -3.24622863410664       -1.39081992532294       -2.15673014825043
H           -5.09980263863838       -2.16255598600842       -3.58221865352484
H           -7.07720256092623       -0.76037728515406       -3.94915279149063
H           -7.23486575511930        1.49039240504510       -2.93720596197012
H           -6.76607513359632        3.83533465718469       -1.55452790464352
H           -5.81526955811456        5.63432125235983       -0.14847734275543
H           -3.66752867698057        5.33029163394539        0.99142169791361
H           -2.39038976280818        3.23993735585899        0.75275887285593
H           -0.00668644150065        3.33332645623994        1.04406699453589
H            1.07162432994505        5.45700406526989        1.66193182860192
H            3.45914908802762        5.82840481646778        1.25351200484562
H            4.85745949551809        4.06083552495797        0.22798411500027
H            9.28719790204543        1.32721052290468       -1.67528653437475
H           10.19716477121424       -0.71541552991838       -2.73400289864801
H            8.71389400249651       -2.59959343274837       -3.28054729979357
H            6.30204390082266       -2.47886067962746       -2.78548973415038
H            4.03143664602589       -1.98002812089627       -2.24984224570256
H            1.81817956971463       -1.21943568876113       -1.48496512922006
H            0.36390899159949       -3.26974215585820       -0.28035896681330
H            1.67832735766267       -5.32879691390189       -0.58101169428735
H            3.86616004211458       -5.59763177664325        0.49030956125221
H            4.81827514250438       -3.79395010249054        1.88962973821609
H            5.27687583696492       -1.45650243226226        3.28642355439009
H            5.09546418879959        0.77402325775243        4.33863832316424
H            3.07398712655427        2.13110210822031        4.05595154242511
H            1.19932232927232        1.33952909327354        2.66745220738290
