103
 energy: -171.076530891966 gnorm: 0.000076149024 xtb: 6.7.1 (edcfbbe)
N           -2.05801614517480       -3.12192778870124       -2.51674277873209
C           -1.70806253474743       -2.37732664305546       -1.71804722909864
C           -1.25733351172905       -1.41245119053121       -0.78797117195119
C           -2.13825341239459       -0.39178717375557       -0.39136868584013
N           -3.46452368706069       -0.41749664429014       -0.80966051276695
C           -4.38095607668948       -1.43086632557242       -0.55485881431863
C           -4.19676579304869       -2.64950815529745        0.07640255346222
C           -5.29867361251461       -3.46950443842304        0.23618938532489
C           -6.55892265896237       -3.08156800113535       -0.20860267204632
C           -6.75198188486539       -1.85592861899198       -0.81592858628654
C           -5.65810347986774       -1.01909808078066       -0.98947327377533
C           -5.50197671852356        0.29752384723246       -1.54763149710501
C           -6.37940619029427        1.19253151847730       -2.14384404395984
C           -5.88018965702069        2.38877972011111       -2.62250017231426
C           -4.52210757978524        2.68200133756881       -2.54365123843466
C           -3.63028739046660        1.80429803134487       -1.95489022285485
C           -4.13721090571450        0.62992068486813       -1.42413258845192
C           -1.65041717561814        0.65912352501584        0.40588905050913
N           -2.48866108425963        1.68209420398920        0.83695813657351
C           -2.31523083767657        3.03800499548864        0.58697690754955
C           -1.27668257050865        3.69152612577204       -0.05482485314030
C           -1.36957001887791        5.06284374134094       -0.20650994169758
C           -2.47557471665282        5.76820319532513        0.25794443560922
C           -3.52538640110040        5.11702815977492        0.87610113268631
C           -3.45104068266511        3.74071066699835        1.04059690341309
C           -4.34485476010209        2.76479009601053        1.60440659912864
C           -5.58808545797697        2.84855653124160        2.21580845301779
C           -6.16927766757190        1.68986412614724        2.69424107279428
C           -5.51301581545426        0.46631190903151        2.59967549736261
C           -4.27359167110308        0.36030914512260        1.99563878447430
C           -3.71442173959258        1.51113414383326        1.46580625050081
C           -0.29836230507798        0.65151867987446        0.78867321347454
C            0.15629231269260        1.61880324427408        1.71443885682664
N            0.51284936388551        2.36664478550931        2.50715162222569
C            0.58085769797555       -0.37004802672319        0.39317659231325
N            1.90777645836415       -0.34911022849038        0.81638562565654
C            2.56845143228608       -1.39859823745458        1.43881768741100
C            2.05161855007495       -2.56490294515055        1.97770102007309
C            2.93679270570516       -3.44566538161844        2.57155851706652
C            4.29843399340511       -3.16517644397154        2.64586716446646
C            4.80990779913845       -1.97885753803327        2.15714889312168
C            3.93734329370187       -1.08051551102160        1.55751707696306
C            4.10147080968264        0.22588838558243        0.98820079793678
C            5.18541946146882        1.07122296941578        0.79073610730958
S            6.84181305796057        0.77065837846916        1.24153528753507
C            7.32408645016209        2.32681399616283        0.59185567966712
C            8.61012768337536        2.84036693938801        0.59072612946070
C            8.81910356223954        4.08867036363782        0.03557919087131
C            7.76023036594602        4.80992156346319       -0.50844632538334
C            6.47958741164077        4.29613154865522       -0.50513180677082
C            6.24259120427836        3.04007074003638        0.04839277612404
C            5.00386980437657        2.31354229582996        0.16098381496010
C            3.73286508711574        2.69446583905164       -0.27778122573633
C            2.64451268709031        1.87004712222389       -0.09392626125456
C            2.83089013116738        0.65127011370762        0.55032654329334
C            0.09507604722090       -1.41960972629775       -0.40536207863146
N            0.93659666100102       -2.44016913210823       -0.83590032623167
C            2.16943873568123       -2.26312491731344       -1.44932895870662
C            2.72465424205962       -1.11153901305420       -1.98185312005888
C            3.97419411554203       -1.21017653147955       -2.56612904077901
C            4.64441076689385       -2.42754554341002       -2.63929542297604
C            4.06667953321357       -3.58809456841328       -2.16111923545582
C            2.81322051265578       -3.51177724297472       -1.57001651483509
C            1.91993266319839       -4.49174439063511       -1.01235555522643
C            2.00376154086470       -5.86640362986881       -0.83891385664637
C            0.95069861375054       -6.52311780197656       -0.23225021299700
C           -0.16788864765490       -5.82470976514705        0.21217065518775
C           -0.26995989194544       -4.45500834856161        0.05183456824620
C            0.77196563567764       -3.79624262904842       -0.57875956894882
H           -3.22805230234375       -2.95882654777168        0.44047432601125
H           -5.17551393283382       -4.42764454354080        0.71827762986507
H           -7.39540205530220       -3.74924632630770       -0.06842394993252
H           -7.73184033579184       -1.54763366226849       -1.14581581240279
H           -7.42677248445368        0.95079071800329       -2.23642223418163
H           -6.54677151327432        3.10148791025693       -3.08389657253298
H           -4.15224555059925        3.60994005239082       -2.95294094458445
H           -2.57488315255550        2.02954753247865       -1.92574083011580
H           -0.41775101208418        3.15662653861990       -0.43288341158782
H           -0.56723930802775        5.59323529086158       -0.69709161796054
H           -2.51182458077796        6.83869930996608        0.12431228370592
H           -4.39043242470285        5.66138622330297        1.22152987397161
H           -6.08216199645341        3.80193907452014        2.31998646545925
H           -7.13848528062147        1.73250590164114        3.16751886778150
H           -5.97479734241730       -0.41966300320081        3.00857915615273
H           -3.76134700176911       -0.58903063230445        1.95388094792754
H            0.99433136780875       -2.78124331878287        1.94964114669365
H            2.55948244036043       -4.36710508937132        2.98836023519831
H            4.95887813158558       -3.88094508875947        3.11092781865486
H            5.85960375137352       -1.74364737324951        2.24141472774938
H            9.42444184946888        2.27426142134744        1.01570543130840
H            9.81421613121882        4.50715741021594        0.02489593045249
H            7.94470558775329        5.78370573808979       -0.93705273179419
H            5.66146995225741        4.86003814311945       -0.92668243005083
H            3.60573553644002        3.64578581365308       -0.76997946667891
H            1.67110968643312        2.17036819658598       -0.45068197333684
H            2.20136847857869       -0.16744573110925       -1.95744270939626
H            4.43313728444274       -0.32368794717095       -2.97758848971154
H            5.62190117717306       -2.46378245736439       -3.09578953478074
H            4.57173419001999       -4.53720303800391       -2.25000197001166
H            2.87847931231657       -6.40499778371683       -1.16864106347518
H            0.99403029741448       -7.59252217774228       -0.09232023832674
H           -0.97288640992093       -6.35920404125290        0.69375605903044
H           -1.13894919958269       -3.92563856967200        0.41393189171827
