103
 energy: -171.009522755041 gnorm: 0.000108385992 xtb: 6.7.1 (edcfbbe)
N           -1.24482087554582       -3.18538699527869        2.58169523156810
C           -1.17033342611376       -2.28978864504710        1.84995720941256
C           -1.08074549255787       -1.21420090961506        0.98177435938271
C           -2.26335658472008       -0.63045832433131        0.42248705857496
N           -3.49626602464169       -1.25019421868726        0.66237873763288
C           -4.61198547788042       -0.64494231034437        1.20722930852369
C           -4.73549327911939        0.60694171254321        1.79179117728110
C           -5.97822876016787        0.97244468193589        2.27603820634600
C           -7.06709758429023        0.10949396785475        2.19777073422594
C           -6.93594157197836       -1.15962669648878        1.66003614807357
C           -5.69895939711035       -1.54727626788260        1.16962428653358
C           -5.19644380010484       -2.76592880154378        0.59102452813530
C           -5.77446834642279       -3.98912334101193        0.29036835793890
C           -4.98820783874162       -4.96839798039394       -0.29151886065297
C           -3.64782153426045       -4.73280430989526       -0.58571328954411
C           -3.05297448328326       -3.51860085346300       -0.30034513490816
C           -3.83016794653669       -2.54053560691953        0.30474763065508
C           -2.19685999155032        0.54234398958467       -0.30163095648217
N           -3.34927208017379        1.08541133308708       -0.88349036934389
C           -4.22786735257874        0.41439357673874       -1.71152722503320
C           -4.10276821108870       -0.83801034098592       -2.29458066861477
C           -5.13572120165238       -1.27976155743004       -3.10098399845875
C           -6.25664185954658       -0.48977425277323       -3.33739294347802
C           -6.36152662397398        0.78153687359116       -2.79877043621194
C           -5.33779287440896        1.24446564358492       -1.98729491905681
C           -5.09591029672821        2.48777010892163       -1.30295216310081
C           -5.81335321676139        3.66752279878114       -1.18470076527608
C           -5.28628552010430        4.68908513044652       -0.41356656948693
C           -4.06892180371112        4.53747858142521        0.24493606825584
C           -3.34011100609859        3.36754398315700        0.14602477560651
C           -3.85223495118490        2.34809412086632       -0.64466694162504
C           -0.94404076451617        1.20405285464591       -0.51071298224677
C           -0.85098083797990        2.27540796780320       -1.38330279751906
N           -0.76947388263042        3.16632250876910       -2.12024977148954
C            0.23656880063654        0.62110808541280        0.05070606436900
N            1.47272403531258        1.24075399953298       -0.18118084564323
C            1.81915272881035        2.51895366707787        0.20546687790760
C            1.03999542428596        3.51280204116070        0.78203515882625
C            1.65051990527593        4.71058341932815        1.09761854798932
C            3.00888149657154        4.91731504021437        0.86188387482164
C            3.79742776184343        3.92515078401266        0.31034306581344
C            3.20224749835772        2.71603978686352       -0.01995069243327
C            3.69670345764389        1.49311497945458       -0.58262243174607
C            4.93696208568989        1.04333986137664       -1.01119595936027
S            6.44425122837312        1.90823754947235       -0.94810201432974
C            7.28665393648837        0.54238656877488       -1.66337094739910
C            8.63978771741738        0.48263954644667       -1.94450663639019
C            9.14273075336695       -0.67538793571583       -2.51218153384669
C            8.30618281579946       -1.75185888089257       -2.78872105100980
C            6.95590695400810       -1.68916592907230       -2.50630292742779
C            6.42502784449846       -0.53337269012284       -1.93751013147371
C            5.06442436886761       -0.24682878878083       -1.56623454552068
C            3.93713915100249       -1.05800101842739       -1.71924378561593
C            2.69828891992023       -0.63493549350076       -1.28897142562660
C            2.59354932768392        0.61690630666954       -0.68583458464115
C            0.17043532285817       -0.55225043713854        0.77538671519669
N            1.32487856562321       -1.09477743018620        1.35529971949226
C            1.84499462115646       -2.34629582025741        1.09336196280546
C            1.33035128509107       -3.37101126403792        0.31129218028259
C            2.07624068190652       -4.52776043779321        0.18792037952085
C            3.31369290507176       -4.66089778455348        0.81250674654426
C            3.84293717059730       -3.63392987250198        1.57436249416253
C            3.10777338421247       -2.46771079570432        1.71849705194080
C            3.34406873836268       -1.22614544606087        2.40738059355653
C            4.38055593933798       -0.74950342211645        3.19490577036521
C            4.26376257548639        0.51342497749640        3.74995940361732
C            3.11997679469569        1.28144632207682        3.55363491137382
C            2.07568468885772        0.82739989969350        2.76890070064143
C            2.21154232340090       -0.41562596418742        2.16860165618258
H           -3.88935248682543        1.27085474775938        1.88228341257700
H           -6.10126719108426        1.94575038635752        2.72632270719791
H           -8.02343228040997        0.43177596940727        2.58055694706587
H           -7.77462769072674       -1.83761527986903        1.62830835161508
H           -6.81634024238419       -4.16971330270681        0.50476942255465
H           -5.41825498729367       -5.92997030631455       -0.52743545355360
H           -3.06030952222412       -5.51212688840029       -1.04734007398037
H           -2.01507616405653       -3.34287960560712       -0.53860793047789
H           -3.22325684753278       -1.44402706106894       -2.13956630070968
H           -5.06582437905789       -2.25568753439407       -3.55697635872929
H           -7.04654258748969       -0.87008764215004       -3.96703286674708
H           -7.21775819111106        1.40333454064646       -3.00909938917466
H           -6.76375693877085        3.78253366557176       -1.68223377471877
H           -5.82717241970806        5.61790024334235       -0.31386446995500
H           -3.68605167130155        5.34779644699627        0.84687315452378
H           -2.40089118755238        3.25644996634467        0.66609718852169
H           -0.01103471843117        3.36082197203625        0.97284709926371
H            1.06234890786213        5.50178330429747        1.53743399334298
H            3.44914949658804        5.86817044189441        1.12050805029082
H            4.85167805299245        4.07894298058284        0.13937682284714
H            9.28191943148722        1.32151034544955       -1.72590544341601
H           10.19551360654346       -0.74173093827466       -2.74087951653003
H            8.71864462775404       -2.64649376800107       -3.23035338712143
H            6.30983981030714       -2.52632907293117       -2.72131011747412
H            4.04025155363669       -2.02580650627413       -2.18306439723751
H            1.82641367029177       -1.25400395750614       -1.43160040625424
H            0.37488425985243       -3.27488130681275       -0.18117927957159
H            1.69087432814414       -5.34237852587066       -0.40665892461564
H            3.86759813150897       -5.57985269719630        0.69431537807043
H            4.80802554328360       -3.73425046549098        2.04631593306937
H            5.25539486594402       -1.35495812689731        3.37466942930328
H            5.06259226855039        0.90427224600703        4.36158903555795
H            3.04133367020394        2.24948425555280        4.02459968668460
H            1.17919187622285        1.41549151569829        2.64368346061147
