  80
  -121.755378128800       0.289657639686327      !
 C          1.0373992430        4.4109880485       -0.0342331386
 C          1.9561755155        3.5610040331        0.8341401409
 C          3.4220507806        3.7368577176        0.4432401564
 C          4.3638909599        3.0104115235        1.4027179281
 C          5.8304217820        3.0911538148        0.9746894874
 C          6.2055373542        2.2000590558       -0.2158702388
 O          6.4228332406        0.8543161187        0.1714958101
 C          5.4581129309       -0.0785177770        0.1406274687
 C          5.8784367947       -1.3543082766        0.5988597945
 C          5.0208136670       -2.4177794335        0.6526948990
 C          3.6933105608       -2.2372627954        0.2433763622
 C          2.5474167258       -3.0679614938        0.2127509562
 C          2.3019119256       -4.4070438011        0.5444880794
 C          1.0377131472       -4.9050108061        0.3900770160
 C         -0.0238251353       -4.1017148572       -0.0999125889
 O         -1.2030453181       -4.7346551320       -0.1992633764
 C         -2.3812357218       -4.0197751825       -0.5326782138
 C         -2.8802663671       -3.1610696316        0.6319790243
 C         -4.2753960453       -2.5916252098        0.3900418483
 C         -4.3489700307       -1.6511568948       -0.8104727690
 C         -5.6888926281       -0.9218481827       -0.8571693979
 C         -5.7470138299        0.0755436769       -2.0068256863
 C          0.2015692006       -2.7700994932       -0.4514536725
 C          1.4761179606       -2.2653889211       -0.2790825670
 N          1.9461668193       -1.0008609789       -0.5508092651
 C          1.1642354598        0.0624558438       -1.0316727307
 C          1.5894447402        0.8109454920       -2.1618269623
 C          0.7237309579        1.7933489036       -2.6005548251
 N         -0.4201483371        2.0559736688       -2.0305062531
 C         -0.8641322867        1.3797789271       -0.9299080451
 C         -2.1317248992        1.7549188228       -0.4044668441
 C         -2.8600106300        2.7998615300       -1.0565514655
 C         -4.1141254510        3.1835579344       -0.6596046361
 C         -4.7256920398        2.5442036075        0.4074372998
 F         -5.9781757544        2.8998523642        0.7898767606
 C         -4.0552964027        1.5206290552        1.1081280610
 C         -4.6697066894        0.8362097113        2.1724739217
 N         -5.1717476207        0.2472779839        3.0219454800
 C         -2.7776387696        1.1665745721        0.6976142125
 F         -2.1588228713        0.2032449912        1.4279706305
 C         -0.0304369137        0.3562512166       -0.4243961194
 C          3.2834502144       -0.9592518102       -0.2401528464
 C          4.1482476492        0.1171251037       -0.2959480254
 H          1.2591163416        5.4680466840        0.0949536794
 H         -0.0032756427        4.2415225301        0.2303624557
 H          1.1635931001        4.1584938048       -1.0840449848
 H          1.8259050968        3.8418981408        1.8812410814
 H          1.6758829399        2.5105249100        0.7354821469
 H          3.5573574116        3.3765846373       -0.5789522266
 H          3.6684553245        4.8011352357        0.4439804413
 H          4.0622814414        1.9668857759        1.5066173243
 H          4.2692631970        3.4704538019        2.3888599590
 H          6.4694062677        2.8006873640        1.8110561015
 H          6.0696070977        4.1234306488        0.7124817088
 H          7.1749594226        2.5228068555       -0.6080726594
 H          5.4681431810        2.2708854761       -1.0191893520
 H          6.9055419003       -1.4462017732        0.9130272885
 H          5.3524599903       -3.3787060195        1.0128347663
 H          3.0995457690       -5.0293586454        0.9180216643
 H          0.8036451790       -5.9275732469        0.6382482036
 H         -3.1146570886       -4.7978991951       -0.7595794069
 H         -2.2215289483       -3.4138606024       -1.4293563449
 H         -2.1853784379       -2.3427969849        0.8127513481
 H         -2.8987817355       -3.7859302541        1.5268835118
 H         -4.5662344274       -2.0343351173        1.2809571777
 H         -4.9889359781       -3.4070632518        0.2587818898
 H         -3.5514153506       -0.9120110157       -0.7419505850
 H         -4.2144870177       -2.2103905471       -1.7379873157
 H         -5.8391403522       -0.3954104339        0.0840993718
 H         -6.4956709538       -1.6502987198       -0.9609027634
 H         -4.9460732643        0.8041098979       -1.9130252690
 H         -5.6424136975       -0.4323589609       -2.9635830046
 H         -6.6962341065        0.6058148787       -2.0019442259
 H         -0.5797794719       -2.1471329736       -0.8508585008
 H          2.5073135761        0.5884964795       -2.6773784741
 H          0.9649052274        2.3928721985       -3.4699968242
 H         -2.3759302408        3.2770435405       -1.8917430534
 H         -4.6445247503        3.9712074396       -1.1705568765
 H         -0.3148122029       -0.1812357519        0.4617686666
 H          3.7924897917        1.0714344273       -0.6423688325
  80
  -121.755165811900       0.231372050805510      !
 C          0.7235862477        3.9749029809        0.5618148330
 C          1.8643743149        3.2078235711        1.2178003156
 C          3.2161697549        3.5555253196        0.5974119709
 C          4.3698919483        2.9077631690        1.3620841187
 C          5.7376542430        3.1493767490        0.7202010000
 C          6.0322996686        2.2759049322       -0.5050246827
 O          6.3279925426        0.9394466716       -0.1375473224
 C          5.3879704327       -0.0170550498       -0.0726660899
 C          5.8528459744       -1.2584915091        0.4332819711
 C          5.0171680168       -2.3300874657        0.5907788603
 C          3.6692929097       -2.1980350243        0.2309923972
 C          2.5347511008       -3.0424681485        0.3020453249
 C          2.3127464252       -4.3517144829        0.7505931413
 C          1.0492723699       -4.8704200326        0.6795294262
 C         -0.0340342672       -4.1244804752        0.1462270913
 O         -1.2072413645       -4.7757561788        0.1229989919
 C         -2.3710378116       -4.1306045480       -0.3669416614
 C         -2.9517875907       -3.1271892009        0.6326510601
 C         -4.1910132619       -2.4135616425        0.0964740699
 C         -3.9107122468       -1.5417448151       -1.1263518696
 C         -5.1035333874       -0.6504533176       -1.4617998049
 C         -4.8108441199        0.2494936037       -2.6556327145
 C          0.1656878428       -2.8236268587       -0.3169100890
 C          1.4359756577       -2.2908909830       -0.2115404057
 N          1.8743271293       -1.0417533661       -0.5809352976
 C          1.0643781667       -0.0055376455       -1.0738258986
 C          1.4457292345        0.7023212618       -2.2452377885
 C          0.5792000182        1.6902672022       -2.6691904124
 N         -0.5319887687        1.9896617203       -2.0530878425
 C         -0.9390720348        1.3419728431       -0.9200864017
 C         -2.1726472868        1.7570996692       -0.3462781720
 C         -2.8933748510        2.8216056568       -0.9744111394
 C         -4.1261425464        3.2340883259       -0.5416080477
 C         -4.7219395914        2.6043170362        0.5389592833
 F         -5.9575064586        2.9831909744        0.9543677935
 C         -4.0548795940        1.5648194183        1.2206495499
 C         -4.6575396894        0.8898480378        2.2975800808
 N         -5.1559215553        0.3051882824        3.1520947426
 C         -2.7959235786        1.1854205680        0.7769578633
 F         -2.1766136862        0.2114211169        1.4916441673
 C         -0.1003787041        0.3180858396       -0.4252474218
 C          3.2196490338       -0.9600751411       -0.3163701778
 C          4.0568519612        0.1274988180       -0.4631123500
 H         -0.2268725799        3.7091149988        1.0175475404
 H          0.6656847982        3.7442958983       -0.4979948721
 H          0.8695077162        5.0468541038        0.6740391258
 H          1.8892074380        3.4408280077        2.2844014091
 H          1.6834832779        2.1359390366        1.1166748358
 H          3.2163612730        3.2405168839       -0.4478768631
 H          3.3476545471        4.6398335876        0.6073930140
 H          4.1921708469        1.8358520770        1.4633035763
 H          4.3860902340        3.3260443333        2.3709752829
 H          6.5204963830        2.9512996787        1.4550380905
 H          5.8167528521        4.1949252365        0.4168528679
 H          6.9488007109        2.6336291277       -0.9841100705
 H          5.2206874237        2.3241604650       -1.2347573518
 H          6.8944149838       -1.3167469314        0.7049552468
 H          5.3829930005       -3.2608589903        0.9944611030
 H          3.1277327774       -4.9350364608        1.1488335363
 H          0.8340982588       -5.8697524381        1.0216372833
 H         -3.0838622152       -4.9417280825       -0.5362809205
 H         -2.1550919530       -3.6462836435       -1.3233908570
 H         -2.1966249749       -2.3858230749        0.8883437579
 H         -3.2108020035       -3.6628109240        1.5473725127
 H         -4.5754871497       -1.7768142212        0.8937628200
 H         -4.9632535356       -3.1458478441       -0.1458797126
 H         -3.0473741287       -0.9068825090       -0.9308839009
 H         -3.6850900883       -2.1658126071       -1.9928494122
 H         -5.3408431482       -0.0325089268       -0.5976064603
 H         -5.9743342790       -1.2738782463       -1.6749688682
 H         -3.9435476540        0.8712727401       -2.4520168156
 H         -4.6131653385       -0.3442160996       -3.5460292605
 H         -5.6581850993        0.8997239844       -2.8588483941
 H         -0.6304461533       -2.2398414336       -0.7444749086
 H          2.3340361533        0.4486335114       -2.7969380412
 H          0.7898250510        2.2636203512       -3.5636878995
 H         -2.4227405960        3.2888590929       -1.8225926915
 H         -4.6521361961        4.0353557535       -1.0352643663
 H         -0.3519827374       -0.1894853026        0.4882512612
 H          3.6639837148        1.0541576114       -0.8421954114
  80
  -121.754966759700       0.187427295559985      !
 C          0.6338021568        4.0972074826        0.4664106560
 C          1.7336456150        3.3166523740        1.1747125125
 C          3.1084439882        3.6015349923        0.5734020328
 C          4.2270712967        2.9411277628        1.3780098368
 C          5.6179196536        3.1697232514        0.7827255734
 C          5.9428831587        2.3076522337       -0.4429120932
 O          6.2478218933        0.9718561847       -0.0798875700
 C          5.3176502788        0.0051336168       -0.0307720330
 C          5.7916267713       -1.2343910279        0.4704831164
 C          4.9670826495       -2.3169490068        0.6105158617
 C          3.6217240664       -2.1971265277        0.2378416311
 C          2.4981101496       -3.0573021314        0.2837218933
 C          2.2940577313       -4.3766242445        0.7089433068
 C          1.0433315090       -4.9180691900        0.6024933736
 C         -0.0439319246       -4.1831557988        0.0613299196
 O         -1.1938190028       -4.8708414251       -0.0118166890
 C         -2.3644800381       -4.2777979537       -0.5463417789
 C         -3.0754269776       -3.3647634546        0.4559559367
 C         -4.5073387282       -3.0457811426        0.0279731346
 C         -4.6249731685       -2.3152508069       -1.3106391414
 C         -3.9991425472       -0.9237573870       -1.2854921750
 C         -4.2186570061       -0.1703974033       -2.5909540523
 C          0.1334369903       -2.8668422847       -0.3624016509
 C          1.3941217306       -2.3146089261       -0.2332247599
 N          1.8211718012       -1.0572088224       -0.5839624018
 C          1.0168724270       -0.0220363621       -1.0902618293
 C          1.4165395807        0.6734859149       -2.2633182792
 C          0.5679175202        1.6717722179       -2.6988198119
 N         -0.5368725767        1.9961836883       -2.0849837819
 C         -0.9541646575        1.3712883261       -0.9429782013
 C         -2.1495453443        1.8552345798       -0.3449385335
 C         -2.8171435706        2.9629268430       -0.9570584740
 C         -3.9918038629        3.4757366377       -0.4740044939
 C         -4.5779853437        2.9131156865        0.6486874819
 F         -5.7500683349        3.4042864626        1.1245544263
 C         -3.9704119439        1.8224038287        1.3047188319
 C         -4.5699746134        1.2159603498        2.4240955098
 N         -5.0641406669        0.6974648131        3.3223630545
 C         -2.7742653685        1.3309751664        0.8001905208
 F         -2.2258979048        0.2844925173        1.4691433013
 C         -0.1446043473        0.3230559753       -0.4479835918
 C          3.1628655708       -0.9607310081       -0.3030749992
 C          3.9887109414        0.1376078664       -0.4335070156
 H          0.8130571791        5.1671094542        0.5457764339
 H         -0.3353057198        3.8781425440        0.9073888985
 H          0.5925623915        3.8319731478       -0.5863150955
 H          1.7424547362        3.5857395253        2.2330037617
 H          1.5202956014        2.2481652470        1.1058695511
 H          3.1177975226        3.2561721339       -0.4622498104
 H          3.2745871605        4.6810322454        0.5555086186
 H          4.0347067687        1.8713309315        1.4748846661
 H          4.2140177300        3.3613329056        2.3861850719
 H          6.3745782200        2.9539620593        1.5397013558
 H          5.7192424204        4.2177642570        0.4948800549
 H          6.8638851371        2.6778708871       -0.9034790961
 H          5.1437320118        2.3518795294       -1.1864833460
 H          6.8311720304       -1.2827931115        0.7517934643
 H          5.3397314939       -3.2471450587        1.0093798959
 H          3.1131087119       -4.9505776000        1.1123812826
 H          0.8411461237       -5.9288136340        0.9179704153
 H         -3.0107009594       -5.1276083010       -0.7846090153
 H         -2.1288775814       -3.7433865876       -1.4713838816
 H         -2.5156484224       -2.4424308697        0.5958470909
 H         -3.1049347760       -3.8807212911        1.4176200129
 H         -4.9596079551       -2.4261037231        0.8041295292
 H         -5.0756632849       -3.9767752386       -0.0281008649
 H         -4.1729266016       -2.9116807261       -2.1048736291
 H         -5.6861100635       -2.2121543501       -1.5470971068
 H         -2.9282186352       -0.9991073187       -1.1036673090
 H         -4.4417820248       -0.3571988192       -0.4673191943
 H         -3.7943464641       -0.7199858136       -3.4294666794
 H         -5.2810208473       -0.0311674470       -2.7783033495
 H         -3.7466642647        0.8080626570       -2.5444227891
 H         -0.6705224341       -2.2866462716       -0.7810509647
 H          2.3024449632        0.3996845469       -2.8094024145
 H          0.7885365135        2.2316322751       -3.5993932488
 H         -2.3525100901        3.3831172315       -1.8329164549
 H         -4.4773344920        4.3097566572       -0.9547635886
 H         -0.4098984729       -0.1771915022        0.4660562238
 H          3.5894978596        1.0620052639       -0.8120643961
  80
  -121.754762955100       0.151067391234429      !
 C          0.8081736220        3.9697423365        0.5931929412
 C          1.9358502774        3.1853913196        1.2513056580
 C          3.2990977847        3.5544760752        0.6703837626
 C          4.4387156488        2.8770355298        1.4305883656
 C          5.8128535105        3.1156433714        0.8018189310
 C          6.0997070781        2.2730598763       -0.4468227192
 O          6.3839769567        0.9244884559       -0.1165891741
 C          5.4344636946       -0.0235360803       -0.0653510560
 C          5.8919508227       -1.2801614335        0.4087604787
 C          5.0470128110       -2.3465570959        0.5500105382
 C          3.6977384227       -2.1931524318        0.2046538546
 C          2.5572757511       -3.0300116503        0.2645674172
 C          2.3329204096       -4.3497529359        0.6790482071
 C          1.0670284598       -4.8612419910        0.6010876956
 C         -0.0163423052       -4.0949594291        0.0983838023
 O         -1.1910106887       -4.7426667265        0.0651420848
 C         -2.3665679191       -4.0790526812       -0.3680932662
 C         -2.9255656555       -3.1283105709        0.6928429562
 C         -4.2465574202       -2.4903572679        0.2698991823
 C         -4.1227157072       -1.5954999315       -0.9613974551
 C         -5.3958188822       -0.7853713595       -1.1893609411
 C         -5.2482213670        0.1690665532       -2.3675018283
 C          0.1854752720       -2.7820241345       -0.3291332908
 C          1.4598293728       -2.2588442463       -0.2225667689
 N          1.9060370385       -1.0045498298       -0.5670730170
 C          1.1071293306        0.0386315077       -1.0622319747
 C          1.5107411685        0.7543616994       -2.2216873008
 C          0.6526096439        1.7446940225       -2.6560643077
 N         -0.4719532889        2.0375592472       -2.0616248720
 C         -0.9038773443        1.3789281061       -0.9448444131
 C         -2.1591025736        1.7761400412       -0.4060189340
 C         -2.8809762616        2.8246207672       -1.0591522928
 C         -4.1305919841        3.2203952948       -0.6592557039
 C         -4.7435386356        2.5874982121        0.4097462899
 F         -5.9946823619        2.9488811493        0.7920630340
 C         -4.0772625348        1.5631996377        1.1143029189
 C         -4.6979769405        0.8827102960        2.1773359502
 N         -5.2031747872        0.2911919659        3.0232662139
 C         -2.8015276460        1.2016778055        0.7049452027
 F         -2.1832053050        0.2441148573        1.4428633042
 C         -0.0710841656        0.3571731355       -0.4356062773
 C          3.2545282471       -0.9399394128       -0.3121144818
 C          4.1017430706        0.1424615039       -0.4417542500
 H          0.9432876834        5.0383933501        0.7487730695
 H         -0.1534060762        3.6810181026        1.0117020067
 H          0.7810229454        3.7782680787       -0.4768032697
 H          1.9371967287        3.3857770107        2.3247475349
 H          1.7595447432        2.1169072199        1.1135949385
 H          3.3183157519        3.2787047124       -0.3857438158
 H          3.4310689807        4.6372990190        0.7226647642
 H          4.2480239970        1.8054071420        1.5072581015
 H          4.4527133681        3.2727656588        2.4484352459
 H          6.5894184473        2.8847211121        1.5336739904
 H          5.9093246713        4.1680196527        0.5288402923
 H          7.0192197625        2.6351160572       -0.9167309286
 H          5.2883729481        2.3479058568       -1.1747179264
 H          6.9352787613       -1.3544932489        0.6695135048
 H          5.4068572796       -3.2896662392        0.9297077395
 H          3.1480326238       -4.9473181967        1.0553723109
 H          0.8500192935       -5.8693670945        0.9150912720
 H         -3.0810388356       -4.8847435914       -0.5557538896
 H         -2.1774936318       -3.5498566150       -1.3062934244
 H         -2.2010154136       -2.3436126803        0.9033425788
 H         -3.0773431692       -3.6948140803        1.6131240905
 H         -4.6025941885       -1.8829096459        1.1021731866
 H         -4.9890664495       -3.2681156441        0.0832010938
 H         -3.2909631519       -0.9052327729       -0.8264508048
 H         -3.9236458211       -2.1975533498       -1.8495417490
 H         -5.6194108263       -0.2140573082       -0.2899530577
 H         -6.2321999038       -1.4645344059       -1.3671003546
 H         -4.4190694970        0.8499778914       -2.1964832459
 H         -5.0618898867       -0.3812186551       -3.2878255807
 H         -6.1538184091        0.7565172123       -2.4973734830
 H         -0.6132176422       -2.1853038307       -0.7335874799
 H          2.4099504026        0.5050854765       -2.7574319302
 H          0.8825921544        2.3265304858       -3.5402460569
 H         -2.3972136546        3.2932087434       -1.8990771743
 H         -4.6567983099        4.0096156765       -1.1718335753
 H         -0.3409087167       -0.1554933927        0.4696389852
 H          3.7161382302        1.0813179101       -0.7974830555
  80
  -121.754533215700       0.118464932539118      !
 C          1.1312224016        4.3948899200       -0.0289474785
 C          2.0436601000        3.5377890477        0.8390179200
 C          3.5145992819        3.7571063762        0.4930466532
 C          4.4495542403        2.9951997416        1.4316341607
 C          5.9131341019        3.0634440931        0.9918899599
 C          6.2577833800        2.1875972395       -0.2190975412
 O          6.4594524837        0.8334419795        0.1453512370
 C          5.4805420428       -0.0848844680        0.1227294524
 C          5.8901590582       -1.3648779515        0.5789205476
 C          5.0213544918       -2.4184308194        0.6402220579
 C          3.6935359149       -2.2229597728        0.2394926928
 C          2.5408141371       -3.0438183198        0.2166071546
 C          2.2871104856       -4.3804144183        0.5523698141
 C          1.0188031570       -4.8693898035        0.4043318333
 C         -0.0381343799       -4.0595264683       -0.0848550650
 O         -1.2216784296       -4.6849251397       -0.1793393005
 C         -2.3958600199       -3.9677200043       -0.5219202068
 C         -2.8979996685       -3.0997240654        0.6345487755
 C         -4.3029071679       -2.5540037386        0.3946037797
 C         -4.4009364393       -1.6359258003       -0.8213987289
 C         -5.7528741011       -0.9290799023       -0.8686299337
 C         -5.8469355808        0.0300988554       -2.0480294474
 C          0.1956746460       -2.7302605866       -0.4399022940
 C          1.4740522287       -2.2334552670       -0.2713838252
 N          1.9529019519       -0.9718968346       -0.5450148876
 C          1.1702083967        0.0926714310       -1.0218342419
 C          1.5874390206        0.8423007748       -2.1541301038
 C          0.7123652330        1.8160839948       -2.5937314222
 N         -0.4344771030        2.0682446568       -2.0248884282
 C         -0.8725170516        1.3888390716       -0.9239874247
 C         -2.1521164611        1.7391523149       -0.4096608033
 C         -2.9091730079        2.7466555425       -1.0871425243
 C         -4.1764186109        3.0999304215       -0.7034571279
 C         -4.7718597205        2.4671654359        0.3763393148
 F         -6.0360255284        2.7927832528        0.7471149274
 C         -4.0727304324        1.4815463186        1.1029162748
 C         -4.6699117262        0.8048250112        2.1817835570
 N         -5.1600790673        0.2232426508        3.0433679330
 C         -2.7838798063        1.1565928185        0.7034996370
 F         -2.1390814099        0.2289600707        1.4572097477
 C         -0.0259834194        0.3790860743       -0.4132944697
 C          3.2927136560       -0.9410222646       -0.2423330924
 C          4.1695126208        0.1258776077       -0.3046643162
 H          1.3240820995        5.4519405645        0.1404278000
 H          0.0873603165        4.1933357363        0.1975873667
 H          1.2952674581        4.1798084000       -1.0821793741
 H          1.8789210124        3.7819187842        1.8903365714
 H          1.7893024974        2.4853240866        0.6999867929
 H          3.6788024656        3.4530686094       -0.5431175996
 H          3.7432594855        4.8234484139        0.5539421032
 H          4.1337051784        1.9537731973        1.5110655343
 H          4.3677161908        3.4311180382        2.4296355776
 H          6.5567416179        2.7470055262        1.8151283673
 H          6.1656126885        4.0965434091        0.7462545929
 H          7.2258142681        2.5015066486       -0.6216150793
 H          5.5089359538        2.2818620958       -1.0092870198
 H          6.9185011659       -1.4673441757        0.8856587554
 H          5.3440158934       -3.3825983132        0.9997499233
 H          3.0819839196       -5.0076862065        0.9234472872
 H          0.7780355126       -5.8895506060        0.6558912905
 H         -3.1308302564       -4.7452519836       -0.7460631514
 H         -2.2307077653       -3.3685492988       -1.4221638345
 H         -2.2133896971       -2.2698842823        0.7997996570
 H         -2.9023674860       -3.7125322487        1.5379143318
 H         -4.5949614638       -1.9865221250        1.2784615243
 H         -5.0051665209       -3.3820436096        0.2828785661
 H         -3.6144232731       -0.8832413117       -0.7735590615
 H         -4.2661495595       -2.2099405003       -1.7397809523
 H         -5.8964250658       -0.3756966180        0.0579913853
 H         -6.5493043789       -1.6730344611       -0.9357675470
 H         -5.0553252793        0.7728886362       -1.9923746443
 H         -5.7519957889       -0.5066127036       -2.9899051031
 H         -6.8037923399        0.5464631898       -2.0423352862
 H         -0.5830397339       -2.1039579973       -0.8391278087
 H          2.5072398795        0.6281774843       -2.6696833165
 H          0.9474532226        2.4161634190       -3.4643886355
 H         -2.4371388424        3.2191655954       -1.9318703178
 H         -4.7292266988        3.8583244070       -1.2345541270
 H         -0.3050818083       -0.1591915415        0.4739519292
 H          3.8235156438        1.0842192342       -0.6506335178
  80
  -121.752942687500       2.201069017463113E-002 !
 C          1.2237905514        4.9556413272       -0.1441994785
 C          2.3798677397        4.5780597717        0.7740545940
 C          2.8430714772        3.1463981541        0.5145908644
 C          3.9986203481        2.7148123649        1.4244102587
 C          5.3852994353        3.1101994281        0.9102694519
 C          5.9080413028        2.2732774088       -0.2654822389
 O          6.2470635608        0.9482647310        0.1104359201
 C          5.3533578482       -0.0534942922        0.0650904010
 C          5.8215751428       -1.2987200077        0.5560666002
 C          5.0057354598       -2.3960546017        0.6271243105
 C          3.6727003957       -2.2835899738        0.2070765353
 C          2.5437066226       -3.1393059797        0.2210400370
 C          2.3212399580       -4.4616201017        0.6280780306
 C          1.0612473191       -4.9830741040        0.5241478930
 C         -0.0208910103       -4.2230187281        0.0078047535
 O         -1.1929323693       -4.8753693927       -0.0347183164
 C         -2.3723851835       -4.2020030805       -0.4419251209
 C         -2.9069557173       -3.2639667091        0.6429538379
 C         -4.2130403593       -2.5831183998        0.2417509439
 C         -4.0634484637       -1.6344238526       -0.9457963443
 C         -5.3180861094       -0.7874496355       -1.1412330860
 C         -5.1373611719        0.2315555254       -2.2590121325
 C          0.1795668906       -2.9106868249       -0.4197827430
 C          1.4495384627       -2.3802742735       -0.2960260421
 N          1.8897585890       -1.1244560714       -0.6338462317
 C          1.1002059199       -0.0547600402       -1.0884647546
 C          1.5190557597        0.7027606743       -2.2155263150
 C          0.7076831803        1.7599879029       -2.5763900435
 N         -0.3927246117        2.0705662352       -1.9484469660
 C         -0.8503156558        1.3597907439       -0.8749297822
 C         -2.0905894840        1.7706842932       -0.3125445547
 C         -2.7757956871        2.8774684356       -0.9070987274
 C         -4.0155613174        3.2867700096       -0.4909462417
 C         -4.6537590192        2.6124709082        0.5375690953
 F         -5.8965761452        2.9884360893        0.9329673405
 C         -4.0207066649        1.5335749000        1.1887267921
 C         -4.6627513924        0.8154254200        2.2137386169
 N         -5.1944893120        0.1967630391        3.0231866454
 C         -2.7540724597        1.1573845476        0.7648383071
 F         -2.1643672069        0.1470313481        1.4541361118
 C         -0.0590728819        0.2739266014       -0.4336522635
 C          3.2268825995       -1.0406524470       -0.3274836991
 C          4.0487548565        0.0626254804       -0.4129149405
 H          1.5297781707        4.9051700452       -1.1868822588
 H          0.8816879844        5.9660500305        0.0645766845
 H          0.3878615873        4.2735955288       -0.0049688945
 H          3.2099408876        5.2704715181        0.6190598066
 H          2.0599059506        4.6701863533        1.8139604276
 H          1.9933888451        2.4788240002        0.6711559053
 H          3.1315897509        3.0704493947       -0.5350326926
 H          3.9706507099        1.6346461543        1.5756464978
 H          3.8543993060        3.1746132845        2.4043547072
 H          6.1054901024        3.0135971671        1.7250099587
 H          5.3749284373        4.1539761162        0.5927916633
 H          6.8540083724        2.7044858917       -0.6070648191
 H          5.2065047911        2.2804432240       -1.1038883217
 H          6.8453726137       -1.3421306719        0.8907707327
 H          5.3743013213       -3.3307728186        1.0192345948
 H          3.1329159680       -5.0526827806        1.0216942875
 H          0.8459247563       -5.9929777918        0.8335396498
 H         -3.0933428209       -5.0017745796       -0.6297252260
 H         -2.1963097565       -3.6604778044       -1.3756313073
 H         -2.1625352098       -2.5019782688        0.8688597934
 H         -3.0682128350       -3.8490634975        1.5499935321
 H         -4.5626743147       -2.0064474907        1.0985095087
 H         -4.9690948488       -3.3371655974        0.0160851032
 H         -3.2186764994       -0.9689620957       -0.7726973149
 H         -3.8701134780       -2.1972236524       -1.8606759320
 H         -5.5419448023       -0.2655857984       -0.2123534652
 H         -6.1650350789       -1.4382224188       -1.3677848481
 H         -4.2968027831        0.8835433920       -2.0396670205
 H         -4.9519701714       -0.2671130951       -3.2084688715
 H         -6.0291952436        0.8449790997       -2.3630290582
 H         -0.6154610371       -2.3156016066       -0.8341403543
 H          2.3995480259        0.4426412356       -2.7766476133
 H          0.9575582622        2.3849393564       -3.4248029839
 H         -2.2727540623        3.3780974102       -1.7170301805
 H         -4.5144052127        4.1198937103       -0.9595935935
 H         -0.3459018272       -0.2803714154        0.4413918085
 H          3.6555944023        0.9862406458       -0.7941436862
