112
 energy: -188.169786233681 gnorm: 0.000054975386 xtb: 6.7.1 (edcfbbe)
N           -0.29796529253015        2.04996504957313       -3.83351490452960
C           -0.13973292510174        1.54808669317289       -2.80068221067269
C            0.03576957620358        0.93957903324337       -1.56969771288105
C            1.26839844274500        1.05629248924863       -0.85236677331251
N            2.31700468143983        1.80057776390633       -1.41433188038159
C            2.30117718002086        3.16094901028209       -1.64973586412774
C            1.25981908902693        4.06687219805478       -1.50743519125125
C            1.52089808715039        5.39534383174444       -1.78725379415045
C            2.78683087609919        5.81715935645057       -2.18504067756351
C            3.83217729326393        4.91937406779497       -2.31187610136314
C            3.59285400937433        3.58041928650302       -2.04313650451710
C            4.41936354905245        2.40209809449432       -2.05681429549560
C            5.75122634835761        2.16491463437434       -2.36031656582246
C            6.22472079167777        0.86578725247340       -2.29546078578648
C            5.38273439925244       -0.19203842753946       -1.96274188217840
C            4.05172996585887        0.02059828528674       -1.65598086629395
C            3.58557750108740        1.32695326628339       -1.67347378039709
C            1.42890968365995        0.42570349293665        0.35728878942267
N            2.65145886830579        0.49209806850953        1.04835651631141
C            3.25846081800599        1.64288496121418        1.50742676304361
C            2.79212211217648        2.94837603008381        1.48256742971080
C            3.60777702215518        3.93062598047618        2.01288716819195
C            4.84680358276333        3.62033952425731        2.56806909203427
C            5.29731779968564        2.31403026437566        2.62991142070382
C            4.49629272512300        1.31054967516872        2.10284936246806
C            4.62434447305083       -0.11758848828603        2.01054607868208
C            5.61271821319056       -1.01038389995800        2.41002613902173
C            5.45224484074191       -2.35666381906420        2.15303653039323
C            4.31776411476606       -2.82510350116223        1.48480518137653
C            4.01068097432711       -4.18126530829474        1.10529811613651
C            4.73625017637483       -5.34618090438450        1.34105686234199
C            4.25222446518262       -6.55595012709668        0.88412550913328
C            3.04723960344637       -6.62802664162812        0.19135266121004
C            2.30774969589280       -5.48650781571655       -0.05624315772454
C            2.79893375348658       -4.27579396456618        0.40170838529764
S            2.01435967900335       -2.72010966301561        0.20980948093675
C            3.31208773800966       -1.93084476627105        1.07651535093150
C            3.45621503736752       -0.57686844982609        1.35255008490297
C            0.35581978648121       -0.30450084295426        0.95955376486978
C            0.52638589292369       -0.88512917589816        2.20427043077243
N            0.69355750654005       -1.35675720210201        3.25027480569497
C           -0.86998089742259       -0.43221469728364        0.23943789002441
N           -1.91523503684080       -1.18251487357594        0.80294543014299
C           -2.52606388639231       -2.26085393382493        0.19516997548628
C           -2.10054807113462       -3.00037356976346       -0.89798128001524
C           -2.89213468583896       -4.05824552730307       -1.30473083110384
C           -4.07118904340430       -4.37717349115278       -0.63657889122202
C           -4.47491972604173       -3.66896672067590        0.48215790437222
C           -3.69231125148163       -2.60872320831592        0.91321456833431
C           -3.76271108011174       -1.70435745745390        2.03118378326124
C           -4.66423555612049       -1.54162332041621        3.07113334419193
C           -4.42036706003706       -0.55572072325372        4.01260444588447
C           -3.29051284712513        0.25090487808564        3.92943377604526
C           -2.37999650605233        0.11289160228875        2.89663053288343
C           -2.62894064384741       -0.86264631549704        1.94041505492843
C           -1.01078866631766        0.15136907152547       -1.00145436600788
N           -2.20021958911956       -0.01369130893566       -1.73671810846372
C           -2.34703593717708       -0.76167060247612       -2.89209404797933
C           -1.37383975304967       -1.31542286487490       -3.70861875728385
C           -1.79607916497685       -2.02132724821627       -4.82039759134688
C           -3.14933515665704       -2.18359718393006       -5.10542864111165
C           -4.12286870172359       -1.64121152696213       -4.28701211008647
C           -3.72340250405572       -0.92050526796350       -3.17009196011236
C           -4.43744515144000       -0.22461341222805       -2.13437677547751
C           -5.78553602056241       -0.03597435983090       -1.85359774438442
C           -6.15169632960807        0.73105605027622       -0.76360402392939
C           -5.18488326753836        1.36264717914559        0.02246571691444
C           -5.37933997995823        2.26400174395651        1.13126563578551
C           -6.56424899262658        2.65575884152492        1.74706678615718
C           -6.52184874934267        3.53664006064783        2.81006053291974
C           -5.31069686705533        4.04366326379650        3.26942802949034
C           -4.11990650802916        3.67327667985666        2.67185943366126
C           -4.16727602045274        2.78407504271508        1.61273211490111
S           -2.77777314747977        2.17288802925551        0.73182038735749
C           -3.81981101930108        1.18671233846420       -0.26029959518608
C           -3.44535889754828        0.34336378784990       -1.29680091876724
H            0.27592018822407        3.74801954787919       -1.19706466494888
H            0.72505053078950        6.11876081688574       -1.69237447022783
H            2.95175205888634        6.86316739261017       -2.39483723567247
H            4.81435922801827        5.25068036608922       -2.61163385739315
H            6.40092135326787        2.97735279155152       -2.64665748716993
H            7.26006769756121        0.66260404635040       -2.52354457253184
H            5.77264204574491       -1.19885531705254       -1.94807035615156
H            3.39161291098824       -0.80310393673301       -1.42988095305878
H            1.82389400459088        3.19037511572142        1.07129148609934
H            3.27345438522143        4.95680209476938        1.99654061921923
H            5.45771509477333        4.41507436878020        2.96828782278575
H            6.24803775028640        2.07594466489630        3.08088031934894
H            6.49625870251764       -0.64867029482391        2.91155746787222
H            6.20986683282148       -3.06117432585041        2.45726104186355
H            5.66865715721504       -5.29727698714762        1.88164724204345
H            4.81391560113908       -7.45932272455874        1.06785476433598
H            2.68336302475731       -7.58307558314448       -0.15559140229571
H            1.37013085724333       -5.52924873678274       -0.58890460033839
H           -1.17297817389941       -2.76974483656469       -1.39946808402305
H           -2.58573235804791       -4.64886583034736       -2.15451670953105
H           -4.66806926914561       -5.20480528843652       -0.98835529808066
H           -5.37292216713139       -3.94012167705672        1.01523240596692
H           -5.53680084706901       -2.17228850012471        3.14284935695334
H           -5.11101467531195       -0.41321579779608        4.82964624725500
H           -3.11620747577103        1.00083748268419        4.68591243551696
H           -1.49605062205456        0.73007061530303        2.85301109468054
H           -0.32290811153997       -1.19121347656313       -3.49263769407203
H           -1.05875888159525       -2.45487714351656       -5.47911262888393
H           -3.43887852688191       -2.74155106131036       -5.98294585181693
H           -5.17051280219154       -1.76973586255426       -4.50993848155414
H           -6.53661131878790       -0.48406956252491       -2.48440140630244
H           -7.19436786834535        0.87611301811066       -0.53029210432507
H           -7.50621596808277        2.26636685324529        1.39385833860784
H           -7.44021685779959        3.83772566629531        3.29083854868845
H           -5.29705788570900        4.73274880073179        4.09994247247275
H           -3.17459684867785        4.06005434864053        3.01957347558146
