112
 energy: -188.169226366126 gnorm: 0.000057019489 xtb: 6.7.1 (edcfbbe)
N            0.25718853885999       -1.71543889194066       -3.56290598296308
C            0.21274646350226       -1.24953883359499       -2.50234345801988
C            0.14933809131409       -0.70175697270022       -1.23290375157586
C            1.18714149609888        0.15986619302572       -0.75609947515433
N            2.35087856152221        0.31485082267125       -1.52352780565431
C            2.88574812734942        1.52798697577094       -1.91240385021514
C            2.28982404592507        2.78001248906043       -1.92379879686797
C            3.03970488867713        3.84483400162161       -2.38833778822180
C            4.34359578022409        3.66741225223924       -2.84189614023867
C            4.92217971055073        2.41054798665469       -2.88207265522101
C            4.18603096399269        1.32751394227991       -2.42713601353907
C            4.42739740935768       -0.09051360413228       -2.37433797032034
C            5.50489268446261       -0.88685158816292       -2.72915788186304
C            5.40149109094827       -2.25692847310415       -2.56013364004330
C            4.23925467178782       -2.83021401104430       -2.05470337704648
C            3.15482411535155       -2.05468273309906       -1.68694599133094
C            3.25722202270852       -0.67900378500471       -1.84028642639542
C            1.02592078041255        0.84414194744139        0.43011013784775
N            2.05067172589594        1.67533750763958        0.91918936466057
C            2.00535605428016        3.05296911795318        1.03311241896247
C            0.92006102622339        3.90783676345746        0.92523980793103
C            1.14892764505612        5.26140367591659        1.08808014268256
C            2.42686281865223        5.75413507156776        1.33990647607127
C            3.51438202046740        4.90598803683222        1.43595150556603
C            3.30752768786218        3.54185623866617        1.28419409200999
C            4.17631849408382        2.39756049842198        1.33166450159213
C            5.54312000843964        2.23264422261001        1.52677116424717
C            6.07618659384682        0.95831819619504        1.55129644968125
C            5.25047001772450       -0.16399946376471        1.44370056960595
C            5.61162862820744       -1.55622115849821        1.54665653786952
C            6.87263641360133       -2.12862511989744        1.68529581395943
C            6.99336195426159       -3.50205402407162        1.76604020429666
C            5.87054797666634       -4.32162733292226        1.71615025584188
C            4.60661207763123       -3.77729384540115        1.58191146964077
C            4.49149279506837       -2.40121332373041        1.49345270048955
S            2.98908874793856       -1.51420355426721        1.30158917901234
C            3.86737523319849       -0.00682822536045        1.25566010194743
C            3.34110730714894        1.27105826925961        1.13381879595273
C           -0.16033269804585        0.69362683068509        1.21182687440464
C           -0.22040991829236        1.24092195604155        2.48162857810192
N           -0.26012755841875        1.70682064066599        3.54236984320118
C           -1.19737102208108       -0.16913027617143        0.73596796136447
N           -2.35788267624663       -0.33239973787594        1.50642356914322
C           -2.88721901974980       -1.55189238113892        1.88336063629798
C           -2.28573419300609       -2.80132184815395        1.88084754036191
C           -3.03067627470157       -3.87462752586262        2.33358430996387
C           -4.33499474303465       -3.70786464335046        2.78994129179745
C           -4.91875163051296       -2.45396124256971        2.84499702155595
C           -4.18763000463122       -1.36269356157977        2.40168948765244
C           -4.43476233679596        0.05483987945441        2.36490781274025
C           -5.51491912397843        0.84241481548982        2.73097166822160
C           -5.41731293967833        2.21480408905851        2.57843413470087
C           -4.25827571457862        2.79870149927631        2.07781922269412
C           -3.17133204442257        2.03208350223512        1.69896045002899
C           -3.26790810651607        0.65427190910033        1.83559458653675
C           -1.03866503890869       -0.84886848715580       -0.45354458666083
N           -2.06986789547003       -1.66905459816612       -0.94762557654555
C           -2.03928629016899       -3.04615411061784       -1.07238621756584
C           -0.96274170762636       -3.91334308071713       -0.97574434952402
C           -1.20669632537619       -5.26314686364782       -1.14736655916563
C           -2.49086182979678       -5.74053261169928       -1.39705989257282
C           -3.56952107072485       -4.88015382747154       -1.48295785784595
C           -3.34751430260558       -3.51947766449570       -1.32222363812694
C           -4.20461740493206       -2.36601577334790       -1.35808590463831
C           -5.57025375723248       -2.18527894250470       -1.54776426679065
C           -6.08996034647099       -0.90532670684544       -1.56123389438446
C           -5.25219646192346        0.20748268052229       -1.44751773640225
C           -5.59892270676833        1.60417897410803       -1.53884438015380
C           -6.85414808745861        2.19093661779966       -1.67012250657276
C           -6.96053375668732        3.56610473786934       -1.74033830906138
C           -5.82903074838619        4.37343266376537       -1.68690541950622
C           -4.57061663202467        3.81477752746563       -1.55975284303695
C           -4.46985253256495        2.43693827350778       -1.48182073256686
S           -2.97645920881970        1.53264742449621       -1.30001607714230
C           -3.87040622358909        0.03422274094214       -1.26442923313311
C           -3.35712031155179       -1.24996631406517       -1.15442013984068
H            1.26781543122059        2.91459078783255       -1.60353749678556
H            2.59995324328252        4.83030638079840       -2.40444012347901
H            4.90147666050386        4.52355196121607       -3.18947264124330
H            5.91937942767095        2.27124753687244       -3.26963325033603
H            6.40349596586611       -0.44380277880327       -3.12960824284896
H            6.22933839603451       -2.89431311100434       -2.83084470322429
H            4.17911519714784       -3.90255657816277       -1.94718166961942
H            2.25300195333215       -2.51056669844054       -1.31076679739428
H           -0.07130819539909        3.52899955781299        0.72680001808554
H            0.31944023366199        5.94884697608041        1.01800426542399
H            2.56619257648800        6.81760782608868        1.46146300823261
H            4.50338817482438        5.29138637861967        1.62892950652659
H            6.17781674125128        3.09408525706767        1.66082401022411
H            7.13603884092337        0.81791208934118        1.69151125075308
H            7.74654148642384       -1.49738628236766        1.72562956310713
H            7.97128860957321       -3.94693260992119        1.87049423760601
H            5.98405222956575       -5.39279286991911        1.78304944524421
H            3.72848401692427       -4.40301756195796        1.54313687305744
H           -1.26320012842397       -2.92770696600585        1.55884797579430
H           -2.58681646746342       -4.85836209404336        2.33786324818995
H           -4.88911926024606       -4.57039417590884        3.12759862715562
H           -5.91622215053403       -2.32332544252977        3.23486408276677
H           -6.41084453079769        0.39087346338608        3.12794875780863
H           -6.24719642553567        2.84555604280324        2.85827917339301
H           -4.20242779451455        3.87250427112310        1.98346865707037
H           -2.27182340512469        2.49650688727035        1.32778968133062
H            0.03361109909017       -3.54669758834988       -0.77945698924713
H           -0.38413401479080       -5.95967823921382       -1.08587908093803
H           -2.64205893215407       -6.80157960689503       -1.52548104088138
H           -4.56338231002562       -5.25347036532938       -1.67473510674837
H           -6.21436119841626       -3.03900575687777       -1.68625818054885
H           -7.14870587525206       -0.75269261609907       -1.69699951672575
H           -7.73474216013218        1.56924962131783       -1.71312602964120
H           -7.93393213147049        4.02209001851691       -1.83910421427017
H           -5.93134362685873        5.44622831155612       -1.74537000954875
H           -3.68584760286812        4.43093944996570       -1.51820911674104
