112
 energy: -188.236051061053 gnorm: 0.000180250856 xtb: 6.7.1 (edcfbbe)
N           -0.35528876809938        1.06046588804497       -4.24066194250033
C           -0.19835530972706        0.83095043230540       -3.12831760629413
C           -0.00495637698342        0.53005072652639       -1.76127902936018
C            1.11651812305465        1.04313819887664       -1.09087765034098
N            2.01206354998875        1.87747421837373       -1.75340316017627
C            1.70865112248807        3.13119484306002       -2.27088170555789
C            0.48193724903360        3.76579181751776       -2.37496891433276
C            0.46310359123178        5.04500889008442       -2.90080484881292
C            1.63452204900142        5.68099035708102       -3.30193983341308
C            2.86127763946655        5.05790119000099       -3.17897593242921
C            2.90488032688952        3.77282790221917       -2.65523046412350
C            3.97796028415189        2.85813445063932       -2.36819846129230
C            5.35443090798950        2.91029028391189       -2.54072040200511
C            6.10870112156004        1.81004148559073       -2.18008016512648
C            5.50669991839847        0.65668966732730       -1.68502529138403
C            4.13761272163140        0.58180324393636       -1.50668407881408
C            3.38636306354022        1.70299125852879       -1.81662515439096
C            1.31138634972006        0.70484920346753        0.25519309849106
N            2.43695750229152        1.14793996870091        0.94809854347129
C            2.80916705388186        2.46694242054549        1.15231477647692
C            2.12366213672123        3.62796298504336        0.83642444313395
C            2.71901741987876        4.83185078828913        1.16464398700403
C            3.95233132140880        4.87752427204216        1.80983366089734
C            4.61407316038331        3.71956184647639        2.16880914513461
C            4.03759385175246        2.49753528121327        1.84562549768034
C            4.42046764360746        1.13139584962878        2.07422892234956
C            5.52673956211391        0.54230407325480        2.68399756260496
C            5.63024289741014       -0.82953807067717        2.71280743204011
C            4.65254285246418       -1.63177000370203        2.11409494847988
C            4.63036003698649       -3.06880335965276        2.00134135435504
C            5.54225288486870       -4.00159744829983        2.48956654028757
C            5.33020814784649       -5.34671685557239        2.26435373270635
C            4.21542776026563       -5.78537457343754        1.55648979987319
C            3.29612100524654       -4.88073601255717        1.05857985675599
C            3.51553589547999       -3.53375994755643        1.28645985790285
S            2.47909788586295       -2.22805832460957        0.73960991733335
C            3.53634168554418       -1.04556450150897        1.49684781181735
C            3.40603260157527        0.33339390913645        1.50349017699893
C            0.36411461965979       -0.09286656513549        0.91535623794947
C            0.56753304474476       -0.39523016645690        2.28036741433849
N            0.74539791463800       -0.61856686426620        3.39132431457334
C           -0.76509944214939       -0.59229435717729        0.25087207028206
N           -1.68378871378296       -1.39589597253172        0.92208887625732
C           -2.11386703417071       -2.63578784228550        0.46868425003614
C           -1.51535303036860       -3.47498536164672       -0.45571067658762
C           -2.12301359597419       -4.69168211592482       -0.70564426569061
C           -3.28521310757036       -5.06919077116227       -0.03936695844758
C           -3.85256048463440       -4.25572772167348        0.92290733903539
C           -3.25735652008196       -3.03067119092396        1.19166863851365
C           -3.52091295389641       -1.98362991615854        2.14267037594142
C           -4.50623790377709       -1.79962504296284        3.10320892530274
C           -4.46656252762684       -0.66054652993846        3.88282623606930
C           -3.45910912543080        0.28459542150222        3.71638436050618
C           -2.47214780161767        0.12614317991509        2.76070572416554
C           -2.51358427365406       -1.01026728121333        1.97022649615414
C           -0.93976571567741       -0.28494375989490       -1.10968453133965
N           -2.05823698670625       -0.75831748469651       -1.80096085050813
C           -2.08093041426732       -1.75020413493375       -2.77305549341414
C           -1.03681635598057       -2.27678561905428       -3.51440402494981
C           -1.33486658734293       -3.27705037167343       -4.42136263610060
C           -2.63568694857712       -3.74847013404752       -4.57889843174725
C           -3.67654811390906       -3.23355870898949       -3.83203554633933
C           -3.40367846773385       -2.22344971205015       -2.91849029899331
C           -4.22142865233886       -1.47750551122858       -2.00080736916794
C           -5.58157508968881       -1.48203530373646       -1.69230655487185
C           -6.06777207779643       -0.58319604933579       -0.76946007609927
C           -5.22690445656125        0.37423297880184       -0.18928891961269
C           -5.57154530500599        1.45023610789871        0.70479478405006
C           -6.80119279150813        1.74815228257886        1.28637910606220
C           -6.91542467607103        2.84096241884842        2.12121513399667
C           -5.81847907553515        3.65527829446985        2.38473285418092
C           -4.58738162791747        3.38390303766277        1.81766271431046
C           -4.47674331704769        2.28229119270796        0.98833374731085
S           -3.00791563039080        1.75841064283675        0.18480278778375
C           -3.86125204160658        0.39201668409193       -0.50731545858007
C           -3.35325789065755       -0.57594606276459       -1.35423035823432
H           -0.43371339569749        3.28745511113533       -2.05730279708694
H           -0.48186900803559        5.55787905646343       -2.99804049586768
H            1.57832576868248        6.67888691868820       -3.70960141025236
H            3.77039510103316        5.55670290425048       -3.47654379927516
H            5.82019833276770        3.79078517864761       -2.95511059818645
H            7.18103887031118        1.83275133264107       -2.30111687414753
H            6.11634712511679       -0.20008055677855       -1.43982313705860
H            3.67169929567410       -0.32593950085229       -1.15322624050867
H            1.15683232846143        3.60020930195566        0.35626574703408
H            2.21251616991792        5.75202350235180        0.91587388766789
H            4.38694967825314        5.83685733606866        2.04571087706432
H            5.55593415189008        3.75740130631261        2.69327085855579
H            6.29369240501333        1.16172852277670        3.12073010440919
H            6.47786350186451       -1.30155969023956        3.18350993753661
H            6.40666854111341       -3.66691865997297        3.04160545433659
H            6.03620162821160       -6.06967407586394        2.64406411726853
H            4.06376516504645       -6.84132640604738        1.39247719176838
H            2.42655397980275       -5.20800327278532        0.50919918141557
H           -0.59639259969476       -3.19834596701786       -0.95115626609289
H           -1.68110322229950       -5.36055309213771       -1.42821920564646
H           -3.73417927533891       -6.02435500409262       -0.26535811302635
H           -4.73243909720883       -4.56613503461029        1.46454092298289
H           -5.28471218938492       -2.53532706022789        3.23226063750063
H           -5.22355483795138       -0.49656431542718        4.63450174382978
H           -3.44463428498863        1.16301458969476        4.34362593572340
H           -1.70044988103597        0.87203939967385        2.64101258368650
H           -0.02378376043468       -1.92021095471568       -3.39432170442139
H           -0.54010912994532       -3.69939482183468       -5.01754066638340
H           -2.82802276553562       -4.53054593131239       -5.29751319430701
H           -4.68276982798855       -3.60386008530617       -3.95031141529960
H           -6.24184097781870       -2.18278827773718       -2.17779140121088
H           -7.11470520382411       -0.58337008513730       -0.51105008016673
H           -7.65432784813866        1.11973424295923        1.08347757836592
H           -7.86767358665387        3.06953570781868        2.57541752723057
H           -5.92607860409647        4.50735747090053        3.03853419467303
H           -3.72914425804557        4.00770986579266        2.01562055665406
