112
 energy: -188.236121193965 gnorm: 0.000041036520 xtb: 6.7.1 (edcfbbe)
N           -0.21428370145338        1.94966646470738       -3.92469758428544
C           -0.08338462149677        1.47797047883142       -2.88781632208530
C            0.07447339896830        0.88575550577663       -1.61442073848722
C            1.28663803853722        1.04287496220941       -0.92437347153461
N            2.31925556729850        1.79813183721303       -1.47308240291231
C            2.26755458611478        3.16120579481836       -1.73913899348860
C            1.19350075070993        4.03238728272733       -1.66228191982985
C            1.42573374594700        5.36549319702495       -1.94904840419056
C            2.69498032136084        5.82282812820181       -2.29173615963725
C            3.77186621231986        4.95943742645515       -2.34748890840507
C            3.56247892274505        3.61620664549203       -2.06581121592254
C            4.43248698263298        2.47172244089140       -2.00706819103454
C            5.78768066171186        2.28452776604790       -2.24282095674851
C            6.30881574264788        1.00958311854694       -2.13083893643133
C            5.49404781253537       -0.07532747160281       -1.81967028767672
C            4.14171869969953        0.08767474208096       -1.58200139240555
C            3.62831795129825        1.37238617797288       -1.64212771659618
C            1.43606253079835        0.42418243316369        0.32425816432679
N            2.64032538107932        0.50206027452221        1.02198333857577
C            3.27354754531877        1.66034801027995        1.44341328321074
C            2.83292002181700        2.97154984291517        1.37879165198232
C            3.66232753089680        3.95147281694383        1.89193652173634
C            4.88617384805130        3.63221717997894        2.47456151638866
C            5.30575983835709        2.32066116931100        2.58126042752845
C            4.49132498643326        1.31873439483059        2.06861155768450
C            4.59414854104179       -0.11397021860882        2.02472052820390
C            5.56645179316946       -1.01180857816182        2.46194488202064
C            5.38994010365748       -2.35816321721218        2.23927746104985
C            4.26161795212414       -2.82693031556118        1.55744718310235
C            3.94345164255514       -4.18628592869355        1.19802671870536
C            4.65011781293561       -5.35481590836606        1.47207241106006
C            4.16083993710137       -6.56801356248775        1.03191971855961
C            2.96895560518511       -6.64059831768318        0.31744704934068
C            2.24976614009244       -5.49581835824349        0.02821434791334
C            2.74679142835064       -4.28284972176661        0.47097626417743
S            1.99533238021096       -2.71952558612477        0.20856917280734
C            3.28047810991083       -1.92825109952961        1.10990294644693
C            3.43226463113986       -0.57623623888622        1.37053284311030
C            0.36219475097760       -0.28881189461778        0.87959424242493
C            0.53048050513937       -0.87526800570282        2.15404918846720
N            0.68804537751111       -1.33202534973278        3.19439682700081
C           -0.85294041695731       -0.43837489188979        0.19540816743544
N           -1.89357680020124       -1.17295942222772        0.75820110658806
C           -2.55814721582858       -2.20983158998649        0.11708697050787
C           -2.15591727437945       -2.94882577828434       -0.98259992649265
C           -2.98594167130572       -3.96966305806260       -1.40819904063040
C           -4.17506297855673       -4.25818330566942       -0.74497646328050
C           -4.54811110968401       -3.55960983482753        0.38744804469263
C           -3.72759628732087       -2.53299601219610        0.83441475353715
C           -3.75842041336941       -1.66265103190431        1.97955008090048
C           -4.65396035784003       -1.50623838609102        3.02889311978744
C           -4.37700610387290       -0.56561421316666        4.00120705283320
C           -3.22450228009713        0.21128050592636        3.93596955933949
C           -2.32272749742213        0.07831701628809        2.89604007445714
C           -2.59832320281264       -0.86147032072400        1.91657220798988
C           -0.98695743775275        0.14489011360567       -1.07680917109371
N           -2.17396740504865        0.00589794555623       -1.80003036954879
C           -2.35457545528280       -0.75344387972361       -2.94966542180047
C           -1.40754469227588       -1.28591520551375       -3.80812218141867
C           -1.86143568915735       -2.02167107374057       -4.88733640329666
C           -3.22128057820988       -2.23331036238955       -5.09984966908459
C           -4.16683653823226       -1.71764959712335       -4.23587559470054
C           -3.73594608959449       -0.96922529144465       -3.14791514605580
C           -4.42399585544728       -0.30361654524051       -2.07542575336395
C           -5.76813692836074       -0.15744380596895       -1.73406361237296
C           -6.10685508393406        0.59818653546674       -0.63410549997183
C           -5.12492415507565        1.27306380265347        0.10091811507634
C           -5.29608956438176        2.18081197717143        1.20649121969502
C           -6.46383508826656        2.53610679786435        1.87668215734469
C           -6.40487091303255        3.43335699552726        2.92333978696963
C           -5.19324742543564        3.99474464617307        3.31408001509286
C           -4.02011072836415        3.66221119150764        2.66302935146605
C           -4.08385058273282        2.75617824704590        1.61958085929833
S           -2.71643194139194        2.19267119917410        0.67617863615224
C           -3.77301734343618        1.14348445455929       -0.24933420582819
C           -3.42341968143487        0.29901203539215       -1.28733287972854
H            0.20516919871024        3.69261275620959       -1.38710605161240
H            0.60290383755130        6.06285470253686       -1.90220321643153
H            2.83566823741502        6.87038416013091       -2.51072104593714
H            4.75830864659370        5.31651231258225       -2.59912421519790
H            6.41509571322296        3.11854581275799       -2.51606170223211
H            7.36103134903492        0.84390958603810       -2.30536741405455
H            5.92116525514429       -1.06563597679294       -1.76765836387764
H            3.50794062622945       -0.76114880446333       -1.37254153527694
H            1.87512472193964        3.22543541169706        0.94972139326443
H            3.34881634396398        4.98305685378854        1.84044721216760
H            5.50730357706204        4.42568939313953        2.86114055948844
H            6.24205289289343        2.07337460001608        3.05650501343130
H            6.44858021206081       -0.64742495257445        2.96368540114345
H            6.12986394951216       -3.06714804413808        2.57488417882724
H            5.57277011615040       -5.30412065906073        2.02894070000322
H            4.70755490106460       -7.47381591938968        1.24620204397540
H            2.59906586981125       -7.59835611954640       -0.01544284821821
H            1.32346218774789       -5.53858309732934       -0.52426444908729
H           -1.21810525883763       -2.74939164298006       -1.47974467602782
H           -2.69954029073488       -4.55495934229542       -2.26855434853223
H           -4.80089659326243       -5.05785035817180       -1.11078900951521
H           -5.45018640574434       -3.81056571679165        0.92336200315587
H           -5.54686902555722       -2.10989910340128        3.07724622192078
H           -5.05996895502644       -0.42679529484826        4.82528699135707
H           -3.02691242950170        0.93615929956037        4.71105462839041
H           -1.43696470514499        0.69491646549433        2.85708994914644
H           -0.34980015195986       -1.13342758933662       -3.64729840453254
H           -1.14358542152963       -2.44052299657023       -5.57630164300040
H           -3.53588093789529       -2.81270568186534       -5.95446713041718
H           -5.21958835530528       -1.88970161165598       -4.39621469029685
H           -6.53037454206200       -0.63200914230854       -2.33108170139480
H           -7.14081765197922        0.70855110361829       -0.34853901231617
H           -7.40505901070956        2.10284379852411        1.57610449791794
H           -7.30939329484271        3.70543300433096        3.44599541880917
H           -5.16544671105675        4.69628871330580        4.13392076648637
H           -3.07464015820326        4.09076238693799        2.95833921863763
