  76
       -103.36483471
 C         -5.9523872169       -0.6950767016        0.7828010950
 C         -5.6821674982        0.7671707730        0.6216783682
 C         -6.7079536270        1.6349652256        0.2795882458
 C         -6.4793781075        2.9922989176        0.1355640775
 C         -5.2092591598        3.4972338781        0.3453734197
 C         -4.1742983921        2.6431547132        0.6822788147
 C         -4.3888147951        1.2745662964        0.8053541792
 P         -3.0793758050        0.0882977794        1.3076310181
 C         -1.5555167975        1.1298704437        1.0966696493
 P         -0.0974815626        0.0290689652        1.4755713692
 C          1.2262809049        1.3501588242        1.1796263464
 P          2.4052540265        0.5151436871        0.0546087623
 C          3.1309699123       -0.8477173885        0.9331666096
 C          2.9240351366       -1.0691466817        2.3053998355
 C          3.5386750332       -2.1266928785        2.9308627085
 C          4.3559319230       -2.9952542100        2.2106699335
 C          4.5448234767       -2.7929272566        0.8481646209
 C          3.9420470820       -1.7411162217        0.1926036141
 C          4.0988841404       -1.5206371182       -1.2757539135
 C          3.6924984370        1.8002657019       -0.1840540530
 C          4.5853022308        1.9908808184        0.8771261499
 C          5.6612297451        2.8358770574        0.7291925827
 C          5.8878527070        3.4669871351       -0.4901190458
 C          5.0232049848        3.2492122497       -1.5519304159
 C          3.9241680277        2.4162833351       -1.4223647938
 C          2.9698519009        2.2079864818       -2.5545816249
 C          0.2097532040       -0.7905945502       -0.1202352654
 C          0.3257172833       -2.1873623588       -0.1700771044
 C          0.5670717141       -2.8344521871       -1.3530575194
 C          0.6693619675       -2.1046537546       -2.5580232167
 C          0.5021324383       -0.7337743913       -2.5435189795
 C          0.2921788297       -0.0539178395       -1.3530609240
 C         -2.9500405387       -0.8369075998       -0.2787500486
 C         -3.0216909580       -0.1580683446       -1.4912490550
 C         -2.9311480347       -0.8426801733       -2.6871854919
 C         -2.7729541054       -2.2177203378       -2.6797529758
 C         -2.7111258070       -2.8980936221       -1.4759313809
 C         -2.7998086861       -2.2249627450       -0.2662260751
 C         -2.7399687071       -2.9726959823        1.0290174719
 H         -5.3999432115       -1.0849606905        1.6390240581
 H         -7.0138085478       -0.8817458783        0.9292277612
 H         -5.6231702839       -1.2397843212       -0.1030700999
 H         -7.7036065503        1.2413881226        0.1295452707
 H         -7.2911480473        3.6533284584       -0.1296093677
 H         -5.0217920875        4.5571552192        0.2505352390
 H         -3.1926849460        3.0600804467        0.8521803434
 H         -1.5626610502        1.9034832930        1.8733814724
 H         -1.4920573281        1.5851702143        0.1047796838
 H          1.7238618328        1.6724187316        2.0993251230
 H          0.8406790541        2.2430793110        0.6762083492
 H          2.2875012616       -0.4050810340        2.8724842230
 H          3.3851548580       -2.2845325698        3.9884395575
 H          4.8324796790       -3.8269887693        2.7056883668
 H          5.1698756257       -3.4762666072        0.2903482998
 H          4.7911253626       -2.2369023568       -1.7121814645
 H          3.1309284809       -1.6215598576       -1.7725321698
 H          4.4723723637       -0.5108279207       -1.4638818426
 H          4.4135912082        1.4749019091        1.8124816820
 H          6.3347580641        2.9987047110        1.5576607362
 H          6.7404243293        4.1169400439       -0.6125815120
 H          5.2052564569        3.7370941720       -2.4994023834
 H          2.1621580147        2.9399996867       -2.5074904498
 H          2.5286946173        1.2115594919       -2.4897528010
 H          3.4697229782        2.3202491787       -3.5142666952
 H          0.2553485126       -2.7424303914        0.7546947542
 H          0.6825992335       -3.9077504049       -1.3737825482
 H          0.8430009095       -2.6246687013       -3.4871782598
 H          0.5386419279       -0.1791951694       -3.4720425056
 H          0.0557129686        1.0011954495       -1.3751912608
 H         -3.1647008454        0.9144987209       -1.4975307598
 H         -2.9857357561       -0.3057984862       -3.6233429612
 H         -2.7004060729       -2.7604282709       -3.6106560575
 H         -2.5900464617       -3.9722008317       -1.4756393678
 H         -3.7378429502       -3.0653879378        1.4588335919
 H         -2.3356261830       -3.9712557268        0.8826204546
 H         -2.1155944670       -2.4362760410        1.7434608051
