  55
  -92.2744538006000       0.484033732395733      !
 C          6.8901761914       -1.3829033514        1.6272470961
 C          6.1009693203       -2.4910203751        1.3603500128
 C          4.7843431253       -2.2968203287        0.9845877355
 C          4.3105219229       -0.9906169794        0.8781388612
 C          2.9232351802       -0.7313722615        0.4771004798
 N          1.9860646253       -1.5135169317        0.9539636883
 C          0.7037729821       -1.2032604930        0.6906434808
 C         -0.3378383452       -2.0244246063        1.1680010111
 C         -1.6376998735       -1.6595535293        0.9698903335
 C         -1.9610623505       -0.4642477821        0.2864834665
 N         -3.3164801928       -0.1203048430        0.1247722772
 C         -4.1777292761       -0.9779155831       -0.5656325645
 C         -3.7200284806       -2.1115750381       -1.2260363669
 C         -4.6000752591       -2.9455026840       -1.8987915604
 C         -5.9482344262       -2.6526214707       -1.9368758754
 C         -6.4152975665       -1.5029417694       -1.3175542051
 C         -5.5416567100       -0.6680300206       -0.6457357526
 O         -6.0710219608        0.4672220641       -0.0869495043
 C         -5.2042737304        1.3284147210        0.5385250833
 C         -5.7495835512        2.4846820820        1.0654113945
 C         -4.9500646249        3.3888407072        1.7478822002
 C         -3.6071407921        3.1169685486        1.9122526392
 C         -3.0544165565        1.9615724082        1.3812501356
 C         -3.8346781281        1.0601681544        0.6682155147
 C         -0.9641440959        0.3448443467       -0.2066524328
 C          0.3812035383       -0.0149806755       -0.0230042638
 N          1.3580425912        0.7316888283       -0.5775114963
 C          2.6002863469        0.3688644415       -0.3798452586
 C          3.6552568765        1.0952422220       -1.0968840343
 C          3.5852935017        2.4782399532       -1.2499602779
 C          4.6079810798        3.1179926710       -1.9266956306
 C          5.6508636690        2.3587701394       -2.4346520031
 C          5.6115609795        0.9841340182       -2.2483148143
 N          4.6464650119        0.3639532001       -1.5998970431
 N          5.0626818456        0.0726868303        1.1503162127
 C          6.3138753109       -0.1258162924        1.5131493351
 H          7.9227548069       -1.4893970319        1.9216413553
 H          6.5069140153       -3.4890989107        1.4452676716
 H          4.1245427752       -3.1210634603        0.7671440520
 H         -0.0771054460       -2.9235027760        1.7038976649
 H         -2.4440273865       -2.2700821928        1.3493717341
 H         -2.6662579528       -2.3423285317       -1.2213469619
 H         -4.2171917277       -3.8230830001       -2.3964966714
 H         -6.6376568258       -3.3004950059       -2.4546966638
 H         -7.4585314095       -1.2319878883       -1.3472541709
 H         -6.8067193540        2.6538064104        0.9365392768
 H         -5.3838690884        4.2890142548        2.1536892987
 H         -2.9742530783        3.7995102322        2.4581352106
 H         -2.0068103739        1.7567913398        1.5342273796
 H         -1.1900605545        1.2482995589       -0.7515560107
 H          2.7488195605        3.0179609880       -0.8367959117
 H          4.5931851892        4.1907578528       -2.0583258647
 H          6.4695813622        2.8178659251       -2.9668918869
 H          6.3914019935        0.3433618484       -2.6405668961
 H          6.8814233982        0.7713766391        1.7260515617
  55
  -92.2743737956000       0.444741725272265      !
 C          6.9297804973       -0.5870060760        1.9078971858
 C          6.1253155251       -1.6760415065        2.2067246343
 C          4.7992843223       -1.6527988188        1.8150913223
 C          4.3312115824       -0.5368830264        1.1237710660
 C          2.9348962758       -0.4677278472        0.6799404762
 N          2.0080196981       -0.9324061872        1.4808407237
 C          0.7200662301       -0.7507667914        1.1378553780
 C         -0.3105888120       -1.2517949813        1.9585163089
 C         -1.6134585916       -0.9848490234        1.6532965217
 C         -1.9503371618       -0.2058489741        0.5219962766
 N         -3.3091369163        0.0421212320        0.2488095668
 C         -3.9060249302       -0.4209805787       -0.9292689665
 C         -3.2005352406       -1.1192193352       -1.9010304491
 C         -3.8292972382       -1.5685545924       -3.0522217341
 C         -5.1751047794       -1.3359952339       -3.2497070268
 C         -5.9010255721       -0.6678076636       -2.2754643973
 C         -5.2797378364       -0.2219332570       -1.1234285959
 O         -6.0772072453        0.3952791074       -0.1922526769
 C         -5.4766447302        0.8486153358        0.9545380970
 C         -6.2858631633        1.4869279639        1.8762304845
 C         -5.7445312868        2.0028243302        3.0442855430
 C         -4.3870896148        1.8957919528        3.2697176396
 C         -3.5716721926        1.2555557069        2.3490425088
 C         -4.1044668050        0.6971138235        1.1934043128
 C         -0.9644783528        0.2810142364       -0.3045364528
 C          0.3827021748       -0.0055102443       -0.0268951928
 N          1.3465233840        0.3837405365       -0.8864946143
 C          2.5920035689        0.1259832073       -0.5773099465
 C          3.6310227665        0.4140653627       -1.5732790440
 C          3.5744072754        1.5699364312       -2.3489241404
 C          4.5856347541        1.7975773584       -3.2650377136
 C          5.6039141774        0.8643517963       -3.3831200257
 C          5.5519252711       -0.2663028855       -2.5802209116
 N          4.5977032218       -0.4916134422       -1.7000440173
 N          5.0979771385        0.5164044631        0.8532422950
 C          6.3583499198        0.4845239013        1.2366525906
 H          7.9703521685       -0.5653256083        2.1926336328
 H          6.5268289943       -2.5277402666        2.7372362838
 H          4.1276401524       -2.4701840184        2.0219550661
 H         -0.0396485357       -1.8399686918        2.8211263726
 H         -2.4126146241       -1.3716947715        2.2686392604
 H         -2.1518005095       -1.3237321945       -1.7567773566
 H         -3.2528199701       -2.1039367636       -3.7906488437
 H         -5.6676957490       -1.6773555266       -4.1463527491
 H         -6.9582711414       -0.4868995450       -2.3863365979
 H         -7.3382226548        1.5730713138        1.6579529977
 H         -6.3840217298        2.4945262571        3.7601597558
 H         -3.9468705652        2.3129575274        4.1623031331
 H         -2.5096085776        1.1960600625        2.5291000434
 H         -1.2013430113        0.8747572926       -1.1737574354
 H          2.7574196547        2.2608264178       -2.2173876129
 H          4.5809798042        2.6873176252       -3.8785658534
 H          6.4132602132        1.0044562400       -4.0829313933
 H          6.3124889970       -1.0344157927       -2.6446760097
 H          6.9377927095        1.3667205853        0.9948978085
  55
  -92.2725133459000       6.210182928816425E-002 !
 C          6.8803969595       -0.8877928920        1.8927909209
 C          6.1190719775       -2.0463923365        1.9008218933
 C          4.8036016457       -1.9837869278        1.4779296143
 C          4.3038996722       -0.7561539078        1.0487203500
 C          2.9188398314       -0.6289880912        0.5827940780
 N          1.9850776096       -1.2976728665        1.2089592066
 C          0.6998972935       -1.0597127535        0.8816536253
 C         -0.3368525060       -1.7786609095        1.5079481261
 C         -1.6387724238       -1.4518486040        1.2528504427
 C         -1.9565957544       -0.3954404003        0.3731253587
 N         -3.3196753818       -0.0620581735        0.1650340280
 C         -4.0765842950       -0.7494608049       -0.7796815430
 C         -3.5255367873       -1.7366051878       -1.5845300343
 C         -4.3043906001       -2.3961462383       -2.5244136832
 C         -5.6384260013       -2.0770636583       -2.6706192507
 C         -6.2017888836       -1.0903413446       -1.8723416554
 C         -5.4320445021       -0.4295182352       -0.9350482883
 O         -6.0496835423        0.5392544641       -0.1802994681
 C         -5.2947524482        1.1768524068        0.7752838457
 C         -5.9293242220        2.1204696926        1.5593470850
 C         -5.2251738766        2.8001951331        2.5444374180
 C         -3.8869961372        2.5280533979        2.7393831732
 C         -3.2438068313        1.5804330754        1.9562976387
 C         -3.9351947303        0.8960869133        0.9664751081
 C         -0.9697010036        0.3034731151       -0.2740615408
 C          0.3774584369       -0.0341980275       -0.0510927000
 N          1.3517966742        0.5669974071       -0.7621035779
 C          2.5937509165        0.2482985898       -0.5040133516
 C          3.6464930838        0.7713437498       -1.3815048414
 C          3.5765716255        2.0694676261       -1.8824515825
 C          4.5988681519        2.5140940233       -2.7012960282
 C          5.6408197130        1.6498539161       -2.9995082185
 C          5.6019442200        0.3687894217       -2.4675220849
 N          4.6374299564       -0.0646000946       -1.6814210285
 N          5.0291114413        0.3597541105        1.0570164811
 C          6.2788974664        0.2883047364        1.4678446485
 H          7.9108370842       -0.8931856920        2.2126369740
 H          6.5452132618       -2.9820418789        2.2335414714
 H          4.1655227604       -2.8524479868        1.4653009791
 H         -0.0731628375       -2.5672993124        2.1949981905
 H         -2.4476811952       -1.9859422100        1.7292816702
 H         -2.4809134764       -1.9856732303       -1.4760299320
 H         -3.8546233067       -3.1596825587       -3.1402860869
 H         -6.2481705741       -2.5864525364       -3.4000964565
 H         -7.2411865814       -0.8191056909       -1.9654850734
 H         -6.9763504136        2.3109211742        1.3857638592
 H         -5.7303191219        3.5346927210        3.1515980484
 H         -3.3290777772        3.0478390559        3.5030567614
 H         -2.1970878909        1.3692939651        2.1137337593
 H         -1.2047031751        1.1003663050       -0.9623011748
 H          2.7407621392        2.6969520763       -1.6195265843
 H          4.5845220102        3.5173399788       -3.1025667804
 H          6.4589503475        1.9572348420       -3.6323273159
 H          6.3811782497       -0.3511337578       -2.6834865681
 H          6.8232923690        1.2241868267        1.4577755418
  55
  -92.2707008175000       9.122713043837875E-003 !
 C          6.8685972212       -2.1133004742        0.7788439014
 C          5.9582838246       -2.5347809829        1.7371643122
 C          4.6536708643       -2.0834453664        1.6634408011
 C          4.3057477454       -1.2167636484        0.6252280027
 C          2.9307599648       -0.7246374092        0.4986673148
 N          1.9873615611       -1.4203045101        1.0916737061
 C          0.7084549889       -1.0556547145        0.9031602792
 C         -0.3355950331       -1.7710946738        1.5256466863
 C         -1.6334434896       -1.4453686198        1.2607273324
 C         -1.9540149178       -0.3984977440        0.3640438795
 N         -3.3085561825       -0.1145736152        0.1129437963
 C         -4.1452307418       -1.1096101361       -0.4028750483
 C         -3.6604611796       -2.3458945209       -0.8127416038
 C         -4.5167712940       -3.3153928450       -1.3116343838
 C         -5.8683871335       -3.0608415313       -1.4264476162
 C         -6.3617160960       -1.8164348400       -1.0644577878
 C         -5.5114134860       -0.8461649112       -0.5668414996
 O         -6.0661819646        0.3709374890       -0.2650098532
 C         -5.2246874934        1.3550131587        0.1892553937
 C         -5.7974044229        2.5840784449        0.4607200088
 C         -5.0266706990        3.6207268453        0.9639972211
 C         -3.6852293838        3.4099785041        1.2101212510
 C         -3.1050099419        2.1813413655        0.9343648369
 C         -3.8550230015        1.1422335481        0.3980351552
 C         -0.9533387930        0.3298901468       -0.2372835733
 C          0.3900190531        0.0291915450        0.0393184591
 N          1.3719817288        0.7843330785       -0.4943791320
 C          2.6128670780        0.4470854696       -0.2623609934
 C          3.6754194618        1.3435891388       -0.7577531155
 C          4.5456789820        1.9520983221        0.1489048390
 C          5.5188787033        2.8010553941       -0.3413118410
 C          5.5914146266        3.0158741246       -1.7099692858
 C          4.6668811556        2.3759437934       -2.5198120347
 N          3.7285175714        1.5683138882       -2.0621349857
 N          5.1803798785       -0.8197824801       -0.2950773121
 C          6.4204571036       -1.2570813248       -0.2172907227
 H          7.8956141370       -2.4429873817        0.8001674359
 H          6.2633921341       -3.2061449679        2.5271956275
 H          3.9024091415       -2.3802421523        2.3771317645
 H         -0.0797770544       -2.5714635880        2.2021667611
 H         -2.4415900511       -1.9800677364        1.7382199383
 H         -2.6036208926       -2.5526397367       -0.7495645697
 H         -4.1125748520       -4.2693111019       -1.6134074437
 H         -6.5397473587       -3.8137372826       -1.8079988001
 H         -7.4077608875       -1.5750400426       -1.1650313933
 H         -6.8530391280        2.7054581843        0.2774090058
 H         -5.4814963637        4.5768043585        1.1693795827
 H         -3.0744388534        4.1987959598        1.6212770428
 H         -2.0591031011        2.0306282011        1.1487336509
 H         -1.1722078858        1.1301823672       -0.9266394088
 H          4.4526383383        1.7605163028        1.2078426783
 H          6.2103110466        3.2888485876        0.3314770370
 H          6.3413592651        3.6661672658       -2.1331853668
 H          4.6723050347        2.5161011251       -3.5932306203
 H          7.0844255617       -0.9020618685       -0.9950147710
