52
 energy: -79.290079752315 gnorm: 0.000036705614 xtb: 6.7.1 (edcfbbe)
O            7.77312763039482        0.80754621313012       -0.87892572199438
C            7.19444153808813       -0.08466683361181        0.04314712830344
C            5.68540553371411       -0.07320473188009        0.04325842168462
C            4.97651681123876       -0.41737415548225        1.18726442346646
C            3.59475324079162       -0.42063049049818        1.18202097402051
C            2.89056130418137       -0.06866288192203        0.03428784707109
C            1.41209224701874       -0.06758692185224        0.03152826329179
C            0.71486723534388        1.14757574358230       -0.01657148046029
C            1.39076916765409        2.39603434726982       -0.03749566699781
C            0.70457644257033        3.57044388449420       -0.07050335208689
C           -0.70462445410037        3.57042430922286       -0.07077639039823
C           -1.39078916124425        2.39599313851324       -0.03796603621635
C           -0.71484956556538        1.14756215460387       -0.01671984993342
C           -1.41206300287508       -0.06759268679668        0.03140151556288
C           -2.89054728139880       -0.06868248911114        0.03433483920867
C           -3.59439998510851       -0.41942863211688        1.18266556197299
C           -4.97613587238417       -0.41564194166294        1.18848173684462
C           -5.68538851242595       -0.07217232685832        0.04446718391822
C           -7.19445219911575       -0.08244725647958        0.04549347629295
O           -7.77320431184318        0.80694600897797       -0.87921792849078
C           -4.98444284484953        0.27211404206300       -1.10386851840244
C           -3.60224948042968        0.27892361116224       -1.10889625602494
C           -0.71481984559163       -1.28296500470504        0.07776870371045
C           -1.39125021509515       -2.53116234953866        0.09759571918656
C           -0.70463285057597       -3.70544763810334        0.12906859691842
C            0.70455635707945       -3.70547185447933        0.12878315003035
C            1.39121549632095       -2.53121219743424        0.09719478883809
C            0.71484077104491       -1.28297619703519        0.07770600729544
C            3.60193910352749        0.28010864372701       -1.10882389775705
C            4.98410495125543        0.27279389114169       -1.10437164521609
H            7.44790176057199        1.69573420904200       -0.69387325521369
H            7.55244491061460       -1.07670058025741       -0.25426877008352
H            7.56451509987024        0.11557069880547        1.06048118444213
H            5.51189905251571       -0.68668379479783        2.08683987292982
H            3.04971984232724       -0.68842433947191        2.07582089743502
H            2.47059712724190        2.39665143614790       -0.01977796707559
H            1.23355192178674        4.51215882514739       -0.08702839911305
H           -1.23359833539244        4.51213625755206       -0.08750986028239
H           -2.47062587199642        2.39653507423769       -0.02065325343282
H           -3.04906929730813       -0.68655280847825        2.07648599933707
H           -5.51127295529735       -0.68388720666932        2.08852049197316
H           -7.56347046194622        0.12173908072652        1.06242770223929
H           -7.55355575717512       -1.07523067652934       -0.24802733256431
H           -7.44761449239374        1.69562950981551       -0.69720061938793
H           -5.53293356666512        0.53176911491523       -1.99784687310557
H           -3.06474195345162        0.54646617961036       -2.00727443652350
H           -2.47102755123182       -2.53210457864704        0.07930155892445
H           -1.23385902040616       -4.64697291821222        0.14411092065694
H            1.23373781991688       -4.64702675576593        0.14350447219398
H            2.47098480392104       -2.53220242677188        0.07850485019913
H            3.06412763377168        0.54887429233140       -2.00665232754422
H            5.53237304312040        0.53338200894046       -1.99821244964704
