52
 energy: -79.290179771170 gnorm: 0.000031210280 xtb: 6.7.1 (edcfbbe)
O            7.75858540939403        0.06916228939768       -1.20754870493906
C            7.19438699979471       -0.05759073186733        0.07556622786516
C            5.68541094800548       -0.04188557361495        0.08709167959746
C            4.99273027272271        0.38453011385250        1.21329552119350
C            3.61105254203364        0.39197119479527        1.22645469245653
C            2.89050872119580       -0.02580718155417        0.11131543534904
C            1.41236774145257       -0.01338229295810        0.12127895466217
C            0.72464602665336        1.20831488302768        0.11670438878822
C            1.40958222562400        2.45155230459648        0.08070589351491
C            0.73248499141902        3.63159393223718        0.09855911476860
C           -0.67544498671008        3.64249577578824        0.15775473403265
C           -1.37083509434957        2.47307475687070        0.17087983199685
C           -0.70491128229666        1.21965057534014        0.13101038720846
C           -1.41193946082204        0.00906838528255        0.12100865552058
C           -2.89007909767615        0.02207862146566        0.11056514387345
C           -3.61136943812328       -0.39434260444875        1.22570666366601
C           -4.99304635635089       -0.38446496680983        1.21247513646820
C           -5.68493685120553        0.04309576269567        0.08622325666900
C           -7.19386206163938        0.06277443832484        0.07511876410963
O           -7.75884891417673       -0.06332171621861       -1.20771036000072
C           -4.96667003242952        0.46114104579569       -1.02631223558787
C           -3.58460110497164        0.45096087762893       -1.01566979964737
C           -0.72423824676366       -1.21260284601297        0.11638862483197
C           -1.40923802614120       -2.45579737894789        0.08030277755770
C           -0.73216881555820       -3.63585970522946        0.09791258386977
C            0.67577671157208       -3.64679742349875        0.15695012638161
C            1.37121756828854       -2.47740640482100        0.17041584385258
C            0.70533455762739       -1.22395180920013        0.13086815774281
C            3.58581921835052       -0.45430765693772       -1.01456976882544
C            4.96791657811743       -0.46202450829784       -1.02514523573512
H            7.43162522472140        0.88211608710614       -1.60899409620834
H            7.55294157621108       -1.02189406434698        0.45281144454129
H            7.57567922348121        0.72830829627884        0.74572805275788
H            5.54108236456090        0.71182582973027        2.08541758895857
H            3.07888761280356        0.72171269191633        2.10719714464166
H            2.48863853262986        2.44365711546120        0.03694885933024
H            1.26823979186044        4.56922301615381        0.07123848533821
H           -1.19656882458191        4.58809705462554        0.18913073270519
H           -2.44977585374333        2.48188685846190        0.21546002586248
H           -3.07983459282544       -0.72463179071278        2.10662266021369
H           -5.54201511207311       -0.71040909278452        2.08471409467726
H           -7.54957235635940        1.02837049265512        0.45176312671230
H           -7.57714902349239       -0.72153077736974        0.74601021512786
H           -7.43358105115021       -0.87700825249748       -1.60903663814753
H           -5.50113987442486        0.80030286170811       -1.90198018194952
H           -3.03346481949148        0.77422418640075       -1.88709218377684
H           -2.48830499795089       -2.44779552479374        0.03669738128970
H           -1.26794102111611       -4.57347805526161        0.07050849531641
H            1.19687081827833       -4.59242723426306        0.18802391197892
H            2.45016159472240       -2.48624953455868        0.21502666193390
H            3.03531498652987       -0.77890879595296       -1.88589219869378
H            5.50305022009462       -0.80064230831857       -1.90061641520186
