60
 energy: -91.695176012580 gnorm: 0.000035327038 xtb: 6.7.1 (edcfbbe)
C           -2.27506559508909        3.41446357911278       -1.57239259740225
C           -0.93277666424547        3.19346574425979       -1.39652467047918
C           -0.44658627293345        1.99101119302513       -0.80611502410262
C            0.93903838028131        1.73503923454591       -0.64000679684290
C            1.93107530494914        2.76615865388742       -0.72025565889994
C            3.23618723804597        2.51075181999250       -0.49053690478343
C            3.72229738695304        1.19336642421861       -0.16853652175307
C            5.02370929328479        0.94697164200650        0.28388326830774
C            5.95934680048939        1.99894615910340        0.51912298839145
C            7.18895913043943        1.76112522021170        1.05853562421671
C            7.56340473918775        0.45751318405074        1.40495680016566
C            6.69618512404938       -0.59108268529589        1.15925290006378
C            5.44563377035507       -0.39736275179826        0.58351832474905
C            4.56900210211291       -1.50519491491092        0.25292143663218
C            5.01159140918708       -2.83207722674192        0.30761128870080
C            4.18758676667398       -3.88806530989596       -0.02949096237648
C            2.89510584354911       -3.64076146701621       -0.45448341472133
C            2.44059545953637       -2.33670514826662       -0.53291874878928
C            3.24577268909403       -1.25614899778004       -0.17196228464518
C            2.76190189561724        0.11645294104762       -0.26447292454676
C            1.43695453542891        0.40995766866156       -0.42983447819347
C           -1.42624522420919        1.05719183829673       -0.38342336513936
C           -2.76986060427193        1.28855798733202       -0.56520578964308
N           -3.70391129148822        0.32428784932618       -0.15715907749994
C           -4.83078185539896        0.55828981284818        0.60158885993797
C           -5.28034105097719        1.74041655230558        1.17424148969660
C           -6.44640934514726        1.69528614020000        1.91445257843177
C           -7.14694360215905        0.50508850677077        2.09597962858611
C           -6.68956524294309       -0.68005927844421        1.55160014198430
C           -5.52214942307064       -0.65977646497902        0.80238534095078
C           -4.76302707688201       -1.67463028368741        0.12428018372264
C           -4.93459077154780       -3.04063669250137       -0.04858434720040
C           -4.00234747993154       -3.73553477281609       -0.79526751908846
C           -2.92094324604652       -3.08113948540259       -1.38065991525445
C           -2.72932712705774       -1.72183580592918       -1.22300140867476
C           -3.64737390715310       -1.02240917308646       -0.45122356156200
C           -3.21798750175113        2.47164440139660       -1.17449933919021
H           -2.61038073247801        4.32832531533952       -2.04129773531259
H           -0.23299429953461        3.93182067475368       -1.75271656332775
H            1.62547640778133        3.77879785148432       -0.93178262014766
H            3.93985246627011        3.32535923731935       -0.55011877747761
H            5.68377837816898        3.01383538616498        0.28398395759312
H            7.87342721403084        2.57859423358801        1.23313748381333
H            8.52512607869289        0.27143816436792        1.85803284955084
H            7.01304775635064       -1.58311984964404        1.44027266120388
H            6.02446503590368       -3.05242777499946        0.60379715235219
H            4.55987625648286       -4.90040044462907        0.02709356117625
H            2.24517861333662       -4.45611270668836       -0.73566284413525
H            1.44133782246632       -2.16745476317038       -0.90211185404661
H            0.72257713011807       -0.39551630374664       -0.44995749160966
H           -1.12795387688670        0.16431779080770        0.14264801628013
H           -4.73179775131862        2.66256096412688        1.05626166346012
H           -6.81980022954295        2.60198916953270        2.36693242669887
H           -8.05494154709280        0.51118189315158        2.68029547656306
H           -7.22441149138566       -1.60481000641024        1.70705532316788
H           -5.78245501501732       -3.54535599005321        0.38927297233870
H           -4.11536546986215       -4.79982325821909       -0.93814077605494
H           -2.21864432515094       -3.64815140665969       -1.97374676899717
H           -1.90078353217944       -1.21870438337384       -1.69828230158654
H           -4.27008960211487        2.62427285921730       -1.35407800705318
