60
 energy: -91.791011036654 gnorm: 0.000067302487 xtb: 6.7.1 (edcfbbe)
C           -2.31563070845009       -2.94251325430927        2.16506904393124
C           -0.98034214571208       -2.82250738650101        1.82640166296843
C           -0.56267227518898       -1.82079503025092        0.95285069123082
C            0.85612896959269       -1.66922078554019        0.60123043609130
C            1.65699428876097       -2.78193199107252        0.33481119078847
C            2.97676917216049       -2.61582575410179       -0.00148413751224
C            3.57261902475435       -1.34857088125763       -0.07860885811074
C            4.96296900685027       -1.18061211899291       -0.45637193109198
C            5.75352329666047       -2.27019659520849       -0.84873635995562
C            7.06961046446475       -2.11759987110672       -1.21290532443729
C            7.64312361560233       -0.85266866762464       -1.20126551574939
C            6.88782974531532        0.23326215958868       -0.82849139781471
C            5.54445299651005        0.10590474034159       -0.44835971495672
C            4.74746972829240        1.26047395703833       -0.07276885872787
C            5.30517043072716        2.54480549261329        0.00007328021815
C            4.54966130012576        3.64742984801653        0.31915574146537
C            3.19244758769030        3.49980815785877        0.57376960021811
C            2.62417872777575        2.24955335439370        0.52630793065864
C            3.37496267024239        1.10605407930900        0.21907880058444
C            2.78030711530048       -0.21920484488737        0.22067721393963
C            1.43273932714755       -0.41446746431476        0.54144823227157
C           -1.51074176181748       -0.95690103644499        0.41616642032629
C           -2.85173556729140       -1.07410925515590        0.76038205549671
N           -3.78932488314582       -0.18406263747075        0.21881936431422
C           -4.98090448087816       -0.52872399946020       -0.38740896515369
C           -5.51502401728697       -1.78449221469531       -0.63864625189765
C           -6.73076481661041       -1.84971419122570       -1.29173934741556
C           -7.40195151683019       -0.69822036627989       -1.69740181700638
C           -6.86346028877663        0.55286249857023       -1.47340797069802
C           -5.64242839404130        0.64435395524986       -0.81837227850455
C           -4.80130264496256        1.74726837568113       -0.44682055175534
C           -4.91434160532341        3.12438618210632       -0.58558305232191
C           -3.90724298498771        3.92494601969391       -0.08536168741188
C           -2.80654178481860        3.36948894226527        0.56338920744307
C           -2.67263079082550        2.00286076172774        0.71460585749227
C           -3.66743125778297        1.19084234985211        0.18855216595565
C           -3.25469656145226       -2.07058541452998        1.64482194066681
H           -2.62820042091301       -3.71488283515761        2.85238151565903
H           -0.25177537149683       -3.49232724713226        2.25787967433276
H            1.22883143411874       -3.77279238761633        0.37173536067940
H            3.55857758349677       -3.50034369483337       -0.20315212187378
H            5.33179403662477       -3.26147378476395       -0.88150822132080
H            7.65226541905512       -2.97644560255288       -1.51186597634550
H            8.67542365283953       -0.72083946841672       -1.49011468906070
H            7.35718223176658        1.20323514829785       -0.84439666036627
H            6.35564333380363        2.69101827789474       -0.19093180027332
H            5.00966242845399        4.62332884087303        0.36877383375249
H            2.58707460094935        4.36118177701611        0.81451339840765
H            1.57023924526239        2.16800533532533        0.73620638518005
H            0.80817655879861        0.43050611972691        0.78060706100051
H           -1.21158995071164       -0.20615645023882       -0.30031081997083
H           -4.99435452103461       -2.68368291199382       -0.34549907398507
H           -7.16896297032549       -2.81573030997128       -1.49552302803503
H           -8.35197442842152       -0.79160611262753       -2.20229312131304
H           -7.37509190866622        1.44483219046939       -1.80243210899186
H           -5.77634914356320        3.55534530842944       -1.07219639116530
H           -3.97380465610297        4.99803673214453       -0.18641738553837
H           -2.04324312682302        4.02255525405360        0.96069221362638
H           -1.82822388971954        1.58286601001193        1.24038503164609
H           -4.29309111919927       -2.14600730281074        1.92958410842328
