60
 energy: -91.791122428187 gnorm: 0.000033677978 xtb: 6.7.1 (edcfbbe)
C           -2.19732957760386        3.24639192468267       -1.78741616559879
C           -0.86682801097384        3.04447885783879       -1.46953613014519
C           -0.48087829374352        1.93568946305217       -0.71867113332949
C            0.93144649474742        1.69779059623163       -0.39149216213648
C            1.78554448985938        2.75146298183662       -0.05662847022753
C            3.10756849452123        2.50786236062132        0.21776165184022
C            3.65100103694598        1.21528846356332        0.18300347806839
C            5.06059693495686        0.97067984533974        0.42230299916834
C            5.95043098470405        2.01763963175909        0.70217411488598
C            7.29401071159962        1.79795360042172        0.88786281257999
C            7.79874499471996        0.50763166671248        0.79077326583026
C            6.94657555695599       -0.53786322375679        0.52735551139506
C            5.56957658675813       -0.34450197194251        0.34903720580590
C            4.67024636762483       -1.45872415046236        0.10570695098604
C            5.12642997243478       -2.78453528725857        0.10729797360614
C            4.27732723808072       -3.84476637146638       -0.10126200517019
C            2.92461146523796       -3.61105821386041       -0.31149556641153
C            2.45065352913623       -2.32121492798036       -0.31608151858722
C            3.29722050825178       -1.22117091542856       -0.11906953112219
C            2.78924320764509        0.13941236748660       -0.12041777552327
C            1.45040939612066        0.41650887816624       -0.41521118951016
C           -1.45821351487136        1.04540135261523       -0.28703375176799
C           -2.79285035213798        1.23923698938420       -0.62013911629464
N           -3.75257968944449        0.30677355107044       -0.20258371808381
C           -4.94162582024766        0.58891966239160        0.43891985014359
C           -5.45257054756218        1.80904093257311        0.85773695892755
C           -6.67157064926302        1.80869233807450        1.50802052495130
C           -7.36832095837259        0.62627818850521        1.74793904561813
C           -6.85355752702910       -0.59293019482031        1.35553353549713
C           -5.62969623477580       -0.61863293721294        0.69994738914140
C           -4.80840273376090       -1.67672735736634        0.18220665201331
C           -4.95031523963148       -3.05705139588689        0.12551818227026
C           -3.95637751847671       -3.80054303792938       -0.47843479636426
C           -2.83990892993639       -3.18309580822218       -1.03819565724970
C           -2.67695278690463       -1.81197188051068       -0.99495383907792
C           -3.65893420107387       -1.06115736686176       -0.36421650417368
C           -3.16437288528983        2.34720302899363       -1.37593306596501
H           -2.48410115713343        4.10517388322293       -2.37641888059458
H           -0.11802463013928        3.73667704645276       -1.82396908877087
H            1.40007426945605        3.75877208267701       -0.00093321337427
H            3.73165299254203        3.35090086828975        0.46538202209011
H            5.58962947501999        3.03057651289404        0.77478614383822
H            7.95397868152698        2.62566213727778        1.10191486645336
H            8.85506680088571        0.32535166791869        0.92269284045364
H            7.36892079754106       -1.52669687738438        0.45493884188213
H            6.16747470485259       -2.99949353315706        0.28429014314269
H            4.66008600544695       -4.85466057849143       -0.09322235378188
H            2.24666932173473       -4.43769438054774       -0.46460035166431
H            1.39339642063475       -2.17420724228528       -0.46552681591288
H            0.78894959428002       -0.38418270120192       -0.70231075074733
H           -1.18816231322852        0.20764101513336        0.33861332789164
H           -4.91188456810024        2.72885321126664        0.69259336761733
H           -7.09227433227339        2.74614792561436        1.84105173170579
H           -8.31997640325855        0.66878638906478        2.25659704928478
H           -7.38566347765762       -1.51084607526870        1.55539869977635
H           -5.82442665338684       -3.53388011851566        0.54280367844754
H           -4.04592545241327       -4.87547625840811       -0.53019022500365
H           -2.08772178022796       -3.78964658478945       -1.52127240311944
H           -1.82081424199805       -1.34013228941599       -1.45375696456256
H           -4.19918573783813        2.48745722297314       -1.64895621330241
