  105
       -161.04754622
 C          8.1514730312        5.0469714465       -1.9423149048
 C          7.1339406494        4.2948282135       -2.5064646763
 C          6.6729898312        3.1559322641       -1.8753699727
 C          7.2233271956        2.7572290719       -0.6576796201
 N          6.7631852071        1.5995909303       -0.0155353673
 C          7.6787657023        0.7676323985        0.6430843818
 C          8.9441504607        0.5444084764        0.1017173940
 C          9.8476191263       -0.2687108500        0.7581786173
 C          9.5043625459       -0.8763572018        1.9548402439
 C          8.2474037554       -0.6594677027        2.4953170624
 C          7.3400395343        0.1588787753        1.8510300131
 C          5.4071756197        1.2823955275       -0.0232364156
 C          4.9910735899       -0.0523232484       -0.0635448696
 C          3.6514695887       -0.3656994201       -0.0614164587
 C          2.6867531231        0.6415091263       -0.0214181055
 C          1.2680376292        0.3058303476       -0.0115434611
 N          0.9323639123       -0.9820885471        0.0121098426
 C         -0.3728426297       -1.2432467129        0.0121712322
 C         -0.7903320332       -2.6399112026        0.0178558635
 C         -2.1334859353       -2.9774020278       -0.1507093451
 C         -2.5288436376       -4.2952050869       -0.1608349455
 C         -1.5901508833       -5.3184782352        0.0072621907
 N         -1.9861507673       -6.6528995453       -0.0047000334
 C         -1.1348910340       -7.6390672482       -0.5230578716
 C         -0.3666458390       -7.3866855603       -1.6589059615
 C          0.4683863162       -8.3644012763       -2.1641421594
 C          0.5443829625       -9.6061946879       -1.5548754842
 C         -0.2220020699       -9.8636557052       -0.4298261243
 C         -1.0537699738       -8.8897524073        0.0878940776
 C         -3.2431065379       -7.0255729533        0.4910340885
 C         -3.9847366260       -8.0196776174       -0.1457899456
 C         -5.2194577071       -8.3914375126        0.3503034639
 C         -5.7362670299       -7.7767765813        1.4789432579
 C         -5.0036294456       -6.7871979986        2.1142537009
 C         -3.7644711691       -6.4144164693        1.6309887124
 C         -0.2451590358       -4.9781976626        0.1852703048
 C          0.1470734568       -3.6593753023        0.1851643031
 N         -1.3206135107       -0.3087846300        0.0044374690
 C         -0.8940959301        0.9521443561       -0.0086009227
 C         -1.8958308901        2.0112162457       -0.0029905107
 C         -3.2492267783        1.7034887450        0.1388359653
 C         -4.1967764611        2.7009908305        0.1515676436
 C         -3.8179807724        4.0404587667        0.0155212077
 N         -4.7753875645        5.0513778582        0.0243629240
 C         -6.0467657876        4.8281336202       -0.5213901766
 C         -6.1964497535        4.0673227083       -1.6804124373
 C         -7.4525956099        3.8523670310       -2.2133073955
 C         -8.5740752702        4.3970857573       -1.6093475787
 C         -8.4296925385        5.1591162539       -0.4615564565
 C         -7.1786370194        5.3724975694        0.0841439636
 C         -4.4751611596        6.3047463701        0.5759138117
 C         -4.9482633071        7.4704395420       -0.0252015105
 C         -4.6593119517        8.7035129715        0.5263444904
 C         -3.8917680979        8.7954497021        1.6759527385
 C         -3.4175466807        7.6400933569        2.2753021742
 C         -3.7079585537        6.4018471318        1.7360655017
 C         -2.4611505322        4.3474123207       -0.1291970376
 C         -1.5163216652        3.3471574540       -0.1347941544
 N          0.3891275354        1.3056204869       -0.0246302660
 C          3.1006092231        1.9733645572        0.0119785573
 C          4.4394785942        2.2912959240        0.0117003704
 C          8.2443546568        3.5194698738       -0.0918488890
 C          8.7039998069        4.6524697412       -0.7349262314
 H          8.5115882117        5.9342044409       -2.4405613291
 H          6.7015044754        4.5917899671       -3.4505885711
 H          5.8870847432        2.5643937406       -2.3216280115
 H          9.2102651919        1.0101954466       -0.8359150709
 H         10.8238372616       -0.4356465396        0.3272198728
 H         10.2115430492       -1.5143559965        2.4627604902
 H          7.9733194955       -1.1239972304        3.4310881075
 H          6.3644745756        0.3354908290        2.2797465575
 H          5.7330059652       -0.8364494462       -0.1045581698
 H          3.3262279654       -1.3932341241       -0.1009278299
 H         -2.8530339860       -2.1859053888       -0.2891329209
 H         -3.5682112341       -4.5491297797       -0.3096791367
 H         -0.4326931112       -6.4226968857       -2.1416818108
 H          1.0576300723       -8.1570452911       -3.0452739098
 H          1.1961227351      -10.3683576910       -1.9542382809
 H         -0.1655996021      -10.8276397996        0.0540744672
 H         -1.6447054464       -9.0888396844        0.9700319814
 H         -3.5873615046       -8.4943854852       -1.0310758623
 H         -5.7850983987       -9.1613364666       -0.1536340323
 H         -6.7030647139       -8.0670742602        1.8612863103
 H         -5.3960291994       -6.3072596744        2.9987013722
 H         -3.1894482832       -5.6506084735        2.1336665094
 H          0.4843342851       -5.7616161926        0.3303728785
 H          1.1827105275       -3.3935994769        0.3269552683
 H         -3.5363329111        0.6700885073        0.2526422080
 H         -5.2415198413        2.4563177149        0.2764670767
 H         -5.3221888307        3.6512244833       -2.1591854334
 H         -7.5549166082        3.2621315746       -3.1120386999
 H         -9.5536084366        4.2297253659       -2.0308151889
 H         -9.2988991858        5.5844437731        0.0182269674
 H         -7.0690709365        5.9595732177        0.9843007628
 H         -5.5398196881        7.4005760202       -0.9263807054
 H         -5.0291851395        9.5994669743        0.0498533878
 H         -3.6657112470        9.7609923117        2.1022647656
 H         -2.8238421215        7.7020170228        3.1754345352
 H         -3.3459721774        5.5015424833        2.2105409403
 H         -2.1613591224        5.3786874919       -0.2456505956
 H         -0.4699148981        3.5794218910       -0.2543627543
 H          2.3510715064        2.7478693925        0.0510154155
 H          4.7528993275        3.3243928842        0.0502947395
 H          8.6710590946        3.2180071645        0.8536474273
 H          9.4940172504        5.2357262482       -0.2851483488
