105
 energy: -161.047705968158 gnorm: 0.000067636978 xtb: 6.7.1 (edcfbbe)
C            8.11096616816723        5.09178221735195       -1.87121754943597
C            7.08627063625043        4.34832722410949       -2.43372406239270
C            6.63881002564801        3.19536200335129       -1.81859740704379
C            7.20963684353089        2.77384389090018       -0.61820445998861
N            6.76137195544174        1.60380189104159        0.00986943219791
C            7.68912696226961        0.76051471781015        0.63643287862914
C            8.94523256971625        0.54944617656760        0.06940067071006
C            9.86131740398011       -0.27328849709893        0.69568547993895
C            9.53988449391417       -0.90236652214091        1.88724257929615
C            8.29181388912415       -0.69822207779556        2.45274122956221
C            7.37190687732973        0.12918316939769        1.83860411178009
C            5.40653703255610        1.28202224283865        0.01072517952674
C            4.99261960146017       -0.05246483355422       -0.05042669881852
C            3.65334149803256       -0.36789451730406       -0.04987033514648
C            2.68703849221012        0.63671488405505        0.00878361321582
C            1.26850057600815        0.30025896154499        0.00576281062445
N            0.93252455369877       -0.98777636174606        0.01110437987329
C           -0.37278433789557       -1.24868729280334        0.00387905897458
C           -0.79077859948627       -2.64529531194809        0.00271715020025
C           -2.14133169253828       -2.98014247175851       -0.09864909300552
C           -2.53792955604686       -4.29763856439858       -0.10361082761393
C           -1.59226908386472       -5.32307712280640       -0.00202215881747
N           -1.99112702984475       -6.65704190512146       -0.00507465163649
C           -1.17841048851623       -7.63718579155776       -0.59137849070799
C           -0.48416735923635       -7.36845201735400       -1.77043779997742
C            0.31301153062770       -8.33975321785251       -2.34411151822517
C            0.42399645856213       -9.59146011468951       -1.76093653720092
C           -0.26830156860606       -9.86481605743043       -0.59266157206381
C           -1.06139445977174       -8.89741222569215       -0.00658075019665
C           -3.20960422015773       -7.03346556905297        0.57657643279548
C           -3.99650042516543       -8.02148306197261       -0.01381694332525
C           -5.19135835155395       -8.39857676693046        0.56792647414457
C           -5.62367646011765       -7.79502000721935        1.73740812421012
C           -4.84667365233044       -6.81063126201756        2.32598494083634
C           -3.64625349523113       -6.43256772190699        1.75668147270066
C           -0.23885497498349       -4.98607137493459        0.10222658648499
C            0.15362992034546       -3.66735803622678        0.10182159394405
N           -1.32028133238992       -0.31376854671403       -0.00278913680544
C           -0.89358297466240        0.94712540667216       -0.00399087161889
C           -1.89431852206150        2.00716532072228       -0.00649131848252
C           -3.25194969751940        1.69948577840892        0.08607839996698
C           -4.19810387608503        2.69840931885921        0.08853598219112
C           -3.81330451932142        4.03967227265493       -0.00690072231692
N           -4.76859085461817        5.05243340779091       -0.00553776007329
C           -6.02502246584074        4.84252247713791       -0.59041862098131
C           -6.14252096573353        4.11288370511554       -1.77285452766679
C           -7.38372076415966        3.91185330485017       -2.34473920982020
C           -8.52157891834748        4.43939681744407       -1.75639430693103
C           -8.40904898435399        5.16990872877225       -0.58484350257103
C           -7.17324435718734        5.36939345492540       -0.00060960467790
C           -4.48477797786275        6.29202258156211        0.58432929830354
C           -4.94286319841428        7.47169906630752       -0.00072233414904
C           -4.67021168984197        8.69118575250869        0.58825477684460
C           -3.93395057014902        8.75555426042898        1.75985019017410
C           -3.47478977788826        7.58611947356864        2.34359734911604
C           -3.74928044039678        6.36132990418528        1.76693701908217
C           -2.45213387797349        4.34667307538152       -0.10294180358951
C           -1.50914163575626        3.34479974114460       -0.09992319064229
N            0.38988442745560        1.30022111376709       -0.00263969068377
C            3.09886028484757        1.96830984202702        0.06948929904367
C            4.43704928963928        2.28816487824735        0.07210913593500
C            8.23871610371384        3.52684746615606       -0.05441725028554
C            8.68499660204332        4.67381784299390       -0.68183050505605
H            8.46014726447534        5.99033695382963       -2.35678656752987
H            6.63703573899450        4.66334934095999       -3.36405010561020
H            5.84721679658473        2.61103028368931       -2.26427213745723
H            9.19454219039938        1.03255464224276       -0.86407109753638
H           10.83038718200173       -0.43028974634410        0.24530468005592
H           10.25730147293681       -1.54677793434074        2.37217665943030
H            8.03486646741174       -1.17990396374905        3.38468638382234
H            6.40323208386984        0.29580354488166        2.28649246075556
H            5.73541221362819       -0.83469357341527       -0.10836415937428
H            3.32976947517500       -1.39511896115697       -0.10693674926854
H           -2.86659130833690       -2.18669620265329       -0.18601242194545
H           -3.58424105634526       -4.54990688557386       -0.19606822844276
H           -0.57811242285111       -6.39659303527752       -2.23236053949015
H            0.84438295750883       -8.11988238153160       -3.25837067253656
H            1.04524060305669      -10.34889601732641       -2.21422295011497
H           -0.18421867160312      -10.83657345754094       -0.12875398437355
H           -1.59393048764876       -9.10950434469065        0.90904030960881
H           -3.66497678122715       -8.48730659650393       -0.93035101736199
H           -5.79276872966512       -9.16388888459581        0.09973355406120
H           -6.55937994510414       -8.09015075376439        2.18738783262470
H           -5.17312779876371       -6.33893535388395        3.24113788210155
H           -3.03646778183844       -5.67265133941062        2.22293634055570
H            0.49674411408282       -5.77200110895364        0.19258415691495
H            1.19550701130046       -3.40318207888261        0.19052762871472
H           -3.54406914275127        0.66458793688712        0.16874875631710
H           -5.24669676996081        2.45344362280596        0.17444282109022
H           -5.25520395978060        3.71000865305303       -2.23874740224443
H           -7.46147221479434        3.34633958241352       -3.26164309950501
H           -9.48929721699706        4.28284745955737       -2.20820527138314
H           -9.29131951348744        5.58127231994598       -0.11690737409159
H           -7.08824037161087        5.93212153472441        0.91756213690705
H           -5.51002844948861        7.42372846904865       -0.91884996823433
H           -5.02857713991613        9.59818252013898        0.12402880379679
H           -3.72002320087812        9.71049959317955        2.21528868642881
H           -2.90548751686671        7.62649642982531        3.26055830623194
H           -3.39973274739532        5.44981486798220        2.22915878779098
H           -2.14738507421795        5.37948935504712       -0.18874262400853
H           -0.45914048402804        3.57706257818072       -0.18183556836896
H            2.34819657675433        2.74062407395624        0.12583754942433
H            4.74912860828141        3.32068816275156        0.13103365632856
H            8.68175266451385        3.20716549170011        0.87747966180920
H            9.48151411993224        5.24957354011121       -0.23389381013361
