105
 energy: -160.971914186334 gnorm: 0.000130750442 xtb: 6.7.1 (edcfbbe)
C            8.11240819763533        4.90455872160440       -2.18062190028720
C            7.08109620345245        4.11018427532878       -2.65655278070868
C            6.64390005304579        3.02069244485993       -1.93044821408403
C            7.23539402758611        2.70938577800950       -0.70408537454711
N            6.78809800757564        1.61571147441315        0.03750424135455
C            7.68406516384238        0.85187056661048        0.78573790746111
C            8.98034491086728        0.61816814881351        0.32079277581006
C            9.85887732008974       -0.14415031592969        1.06420220169126
C            9.46431956167744       -0.69111259635342        2.27503218550359
C            8.17750815275293       -0.46725826140811        2.73882527164840
C            7.29216883735961        0.29769107773290        2.00641461825895
C            5.42711013854393        1.28189176014537        0.03087160924237
C            5.02482405852478       -0.06006827859011        0.00464896968212
C            3.69322223831892       -0.38773626327350        0.00133066101256
C            2.70537972913192        0.61305794628520        0.01689856078753
C            1.31528739751203        0.27426021734274        0.00925832559747
N            0.94154676540057       -0.99640162909875        0.00367155312440
C           -0.34771616811445       -1.29594838942369       -0.00538177713091
C           -0.76650441296346       -2.66459682962522       -0.00984185566580
C           -2.13212281950108       -2.99744198059242       -0.03680923959264
C           -2.53594077859988       -4.30880022805905       -0.04532198516744
C           -1.59224886823978       -5.34266187359567       -0.02008896509299
N           -2.00429416125914       -6.68187554307478       -0.02620337186280
C           -1.28907545908244       -7.62243220531183       -0.76801787512621
C           -0.70779100079408       -7.26694721494899       -1.98715797166411
C            0.00882699655513       -8.19702665727249       -2.71301072827461
C            0.15673175796337       -9.49285870584808       -2.24397024285761
C           -0.41764826289757       -9.85144781999644       -1.03466454862298
C           -1.13218221565000       -8.92829243936387       -0.29785843251524
C           -3.12724080944962       -7.06395042625756        0.70825523665342
C           -3.99027791501152       -8.05057309958715        0.22586436130017
C           -5.10267784550743       -8.41878727510447        0.95570418286027
C           -5.37947123726406       -7.81092606226192        2.17010960268222
C           -4.52953119289236       -6.82748272397356        2.65130466196613
C           -3.41160874913294       -6.45477737612918        1.93243464183051
C           -0.22934952438435       -5.01895108419755        0.01076876570269
C            0.17511274958430       -3.70853656983209        0.01228133307077
N           -1.30302560576190       -0.31317853782704       -0.01550292483290
C           -0.88600148021930        0.94035203707066       -0.00316502338080
C           -1.88896224996864        2.00219592644514       -0.00646694926438
C           -3.24730323520365        1.69295411609748        0.05886766463573
C           -4.19420243849319        2.69156264887392        0.06110957475737
C           -3.80830860246152        4.03364126323944       -0.01062708319682
N           -4.76528922591355        5.04694880521524       -0.01149177992712
C           -6.00598292249465        4.84655245441121       -0.63042995279275
C           -6.09450390323239        4.13189201178617       -1.82478056558655
C           -7.32129191981959        3.93835347529992       -2.42922045758690
C           -8.47346569938098        4.45788796342799       -1.86179175521442
C           -8.38988992093410        5.17288757290720       -0.67818505605690
C           -7.16887881672020        5.36526266918059       -0.06168858399292
C           -4.49504206946084        6.27384835049002        0.60845028125061
C           -4.94630386497745        7.46473762904837        0.04015649400112
C           -4.68515301515594        8.67240676763984        0.65765113930714
C           -3.96738680274452        8.71435858731068        1.84179221040888
C           -3.51472800456652        7.53410654060057        2.40879833227177
C           -3.77740887389910        6.32074340826971        1.80338057762308
C           -2.44634115724514        4.34256292121097       -0.08099559141045
C           -1.50301833024004        3.34060842323016       -0.07458814602177
N            0.38871218312151        1.28438386394022        0.01230769119726
C            3.11715507153027        1.95731074682961        0.03998526282324
C            4.44967231227104        2.28417087975257        0.05031418693068
C            8.27053849094142        3.51681804385513       -0.22697946186582
C            8.70300312668956        4.60092362763192       -0.96409720025432
H            8.45236422400010        5.75447857456723       -2.75244268501216
H            6.61823605478596        4.33690267254205       -3.60562927204900
H            5.84780941105864        2.39615493072977       -2.30767503633732
H            9.28559445321575        1.02944806772440       -0.63025396225007
H           10.85694957940427       -0.32060530672655        0.69094252903494
H           10.15393990703788       -1.28836230255545        2.85176805569735
H            7.86306134916449       -0.88606442820199        3.68333196593820
H            6.29350822094657        0.48043925520675        2.37434248447463
H            5.77813360885984       -0.83447041563864       -0.02460200464817
H            3.37939506465659       -1.41937798197424       -0.02605471323437
H           -2.85584916099995       -2.19797948752575       -0.06393704965839
H           -3.58734285944034       -4.55626291675038       -0.08306074574945
H           -0.83150538784580       -6.26073768272055       -2.35910059987025
H            0.44926885948853       -7.91028227711931       -3.65649433535878
H            0.71644860926782      -10.21738925982207       -2.81553050635988
H           -0.30020898350361      -10.85667288061610       -0.65739133351802
H           -1.56509316203872       -9.20628266681505        0.65195195408666
H           -3.78585001265613       -8.51479728893229       -0.72783035149625
H           -5.76418397346251       -9.18002544854099        0.56900652269485
H           -6.25156046873064       -8.10050967317256        2.73625374313549
H           -4.73518843755603       -6.35185038540169        3.59886707485384
H           -2.74428369447811       -5.69621899811813        2.31373249602788
H            0.49991575364940       -5.81583473226977        0.04472986748239
H            1.22313894665283       -3.45508095205031        0.04296600422561
H           -3.54116650929001        0.65669359534164        0.12055148643785
H           -5.24384379817012        2.44513510803526        0.12786275258111
H           -5.19598217451151        3.73549361330012       -2.27435651980938
H           -7.37645675116915        3.38484525826449       -3.35498318974200
H           -9.42983424843193        4.30690546522129       -2.33887241858332
H           -9.28354631944782        5.57734783869405       -0.22615933422414
H           -7.10677366249430        5.91482834290908        0.86621107429381
H           -5.49791613821819        7.43459814120811       -0.88811879650074
H           -5.03777532373201        9.58794753472847        0.20601432936710
H           -3.76252459864634        9.66025900265099        2.31964386990434
H           -2.95966109094068        7.55701873617707        3.33498568264577
H           -3.43320313839597        5.40081218524703        2.25264383633404
H           -2.14069389957531        5.37640293097313       -0.14944161386121
H           -0.45162985272365        3.57506230201850       -0.13467494373178
H            2.36106890995012        2.72637882963170        0.06247855880666
H            4.75785141657876        3.31952931724441        0.08485050127171
H            8.72187560853093        3.29229116871744        0.72837494682958
H            9.50147939378843        5.21951295351858       -0.58148778164887
