105
 energy: -160.971979131785 gnorm: 0.000115324130 xtb: 6.7.1 (edcfbbe)
C            0.48402334078985        9.34313499998148        2.63323165415396
C            0.28303221851717        8.03444774317530        3.04318321095490
C           -0.47789797576902        7.17091514089604        2.28121081141257
C           -1.05143505354768        7.60737253332557        1.08479832251135
N           -1.81101741008043        6.73301467053948        0.30749739465907
C           -2.91843750845828        7.19304298154459       -0.40495307963031
C           -3.73456796285392        8.19842759890796        0.11865896262629
C           -4.83237709993206        8.64262092941447       -0.59069388910470
C           -5.14111944769634        8.09336748065700       -1.82518028635471
C           -4.33817763781455        7.09145549870993       -2.34721552443941
C           -3.23513022327498        6.64287390601326       -1.64907295119230
C           -1.45757015575015        5.37829305646993        0.24159652330661
C           -2.44611769450233        4.38543873616204        0.24452503192011
C           -2.10121998516464        3.05976989354343        0.17873318853516
C           -0.75191740549110        2.66946145565097        0.11167710365228
C           -0.38833047404537        1.28714997288371        0.04525420592054
N           -1.32621384949047        0.35201647902668        0.06651272133616
C           -0.97594565575369       -0.92196209831760       -0.01537098825629
C           -1.97854850078029       -1.94341347592428       -0.00749386968763
C           -3.34369991302601       -1.61559838416920        0.06931585868008
C           -4.30191893368300       -2.59673017716503        0.07580056738608
C           -3.93710779270486       -3.94739526417646        0.00146500732302
N           -4.91744230943139       -4.94904059587629        0.00333678646725
C           -6.10078324782098       -4.75823344171171       -0.71022688223092
C           -6.09179350574984       -4.05374895772019       -1.91620150294521
C           -7.26571317838947       -3.85658945793529       -2.61505343639531
C           -8.46437688144776       -4.35735723786596       -2.13184933938793
C           -8.47974081711846       -5.05657241765237       -0.93528731728831
C           -7.31268409579366       -5.25525958669029       -0.22520419408185
C           -4.69919388984952       -6.12775251667538        0.71669938966775
C           -3.99589899302626       -6.10230049336162        1.92311932800868
C           -3.77220528096148       -7.27125526726016        2.62232146900506
C           -4.24451574337402       -8.48129534662962        2.13876739523897
C           -4.94197894094779       -8.51305985542074        0.94150355095477
C           -5.16728352945947       -7.35095893625607        0.23123969905689
C           -2.57992829346443       -4.28204123276167       -0.07601768243705
C           -1.62049284266593       -3.30112621435499       -0.07817353440384
N            0.34105989685693       -1.29078301597790       -0.10345972428948
C            1.24484499316243       -0.32713838883920       -0.08456148476888
C            2.65557704457610       -0.70096833110003       -0.14064808873612
C            3.03011755057381       -2.04259380014837       -0.21037166474599
C            4.35865077078843       -2.39737306113202       -0.26495841533743
C            5.35463401829067       -1.41623384834628       -0.24642630908169
N            6.70141069916982       -1.77281340378787       -0.29981234049833
C            7.14650893355024       -2.94231182536435        0.32926347317410
C            6.61093434893365       -3.33335576024470        1.55626405255985
C            7.05498630003841       -4.48713841435821        2.17214194788037
C            8.04066478979848       -5.26260480321632        1.58353273195868
C            8.57860523987199       -4.87609746425146        0.36680250163412
C            8.13586419409335       -3.72822978260471       -0.26109305129624
C            7.61777239283138       -0.96351571941575       -0.98335790119260
C            8.90627833522319       -0.77864783212747       -0.48285188808994
C            9.80965318197819        0.01347127950239       -1.16430891869177
C            9.44420124194991        0.63767557920686       -2.34583216055761
C            8.16419540559245        0.45983464776200       -2.84517929023032
C            7.25590055647648       -0.33654574177748       -2.17549090774429
C            4.97855784225161       -0.07149472399014       -0.17367167849739
C            3.64855656847631        0.27827971292220       -0.12370610749755
N            0.93940826281381        0.95627805136327       -0.02972272765663
C            0.23410010111816        3.67191651541061        0.11029335579240
C           -0.11194984618716        4.99815238268058        0.17179618189024
C           -0.84072125191946        8.92565273354522        0.67396083094615
C           -0.08192326629652        9.78182593107726        1.44656260198818
H            1.07825546950106       10.01556592723855        3.23293472844722
H            0.71665183481557        7.68540940712436        3.96867803355795
H           -0.64275948008416        6.15473711277166        2.60727325727170
H           -3.50606729411735        8.61704764898201        1.08785998381729
H           -5.45763706393719        9.41760452952844       -0.17229770498577
H           -6.00168517922484        8.44244253579659       -2.37517020923612
H           -4.56889478908427        6.66078159656715       -3.31037177594051
H           -2.60419465520422        5.86984096450509       -2.06191700032044
H           -3.48452057680030        4.67758961284402        0.31109238505063
H           -2.85857347830927        2.29175997131898        0.18890499727815
H           -3.61967366981501       -0.57485483182059        0.13417296322741
H           -5.34868144890462       -2.33810182014207        0.14955229006958
H           -5.15696757532205       -3.67267332359820       -2.29958764602007
H           -7.24379193417176       -3.31417472876656       -3.54869080355850
H           -9.37968378364138       -4.20273268376818       -2.68250318186768
H           -9.41062864709296       -5.44277803162612       -0.54681912037908
H           -7.33070765949985       -5.78638501822712        0.71521005680222
H           -3.63701097214310       -5.15874526590236        2.30657350969626
H           -3.23142710981182       -7.23670703223568        3.55654151165444
H           -4.06923580642742       -9.39270478384445        2.68970764690672
H           -5.30589250540317       -9.45274805187798        0.55269252403147
H           -5.69705600651704       -7.38132850886518       -0.70962166460484
H           -2.29760857979489       -5.32297211916450       -0.14598760595778
H           -0.57397700827797       -3.55390824930031       -0.14597113438566
H            2.25823846222223       -2.79607975159603       -0.23204038172353
H            4.64169055695881       -3.43773606030327       -0.33219384598177
H            5.85033130417265       -2.72414970271862        2.02204826014971
H            6.63406202141529       -4.77783764733579        3.12334174560672
H            8.38741365996885       -6.16169685089692        2.06977407628373
H            9.34365743842864       -5.47738274937181       -0.10190665887964
H            8.54960627333006       -3.43366914106024       -1.21445907271727
H            9.18994323942541       -1.25672785805947        0.44334471500443
H           10.80375319489612        0.15073654897532       -0.76497690003542
H           10.15211313933765        1.25814174117880       -2.87395459751054
H            7.87258170612855        0.93789803800388       -3.76868441873885
H            6.26194857238016       -0.48291656501086       -2.57202440599902
H            5.74311312398421        0.69125461005272       -0.14780424804653
H            3.35433470877613        1.31432903121259       -0.06042126345600
H            1.26923913617867        3.37466089441430        0.04872228323915
H            0.65102327332546        5.76352326404044        0.15578739474254
H           -1.26687710984194        9.26596046689007       -0.25845201919799
H            0.07671938292867       10.79749594650515        1.11511020908796
