42
 energy: -72.750713720450 gnorm: 0.000058922684 xtb: 6.7.1 (edcfbbe)
N            4.85935445992761        3.12487305093385       -1.07898088906208
C            5.20550344300065        2.09493876438374       -0.69825210676546
C            5.70729931105944        0.87242777064302       -0.23029808624005
C            7.10888677597132        0.85159762494218       -0.10648024546753
N            8.25332328196093        0.82998331104076       -0.00457389361990
C            4.98393418565783       -0.25571784246725        0.11625818003266
C            3.58948407524074       -0.45080618281414        0.06338025977602
C            2.64782239016811        0.48647194667470       -0.43257304496038
C            1.30738829501990        0.23648184625273       -0.42132498257535
C            0.77293967652205       -0.98530940384334        0.06251536774994
C           -0.62733914096583       -1.25259378440088        0.05327219407365
C           -1.09276775816688       -2.56034284034755       -0.22554672548502
C           -2.40081307132258       -2.81410706573025       -0.49875724054383
C           -3.37822179756637       -1.77608503847367       -0.46804193478469
C           -4.71887024512012       -2.01078184602424       -0.78965935134795
C           -5.65395807190047       -1.00064507873421       -0.72243962315879
C           -5.29234761023117        0.28808565072948       -0.28778794674055
C           -6.23501462869590        1.33356743261011       -0.17728366267696
C           -5.85615531398260        2.58559548442654        0.27320290204170
C           -4.54913498612069        2.83700914405465        0.63687749169133
C           -3.56639916726908        1.82363759360958        0.54091588034201
C           -2.23611169668600        2.02741406401255        0.93971462933124
C           -1.29151640273660        1.02923529050682        0.80922038591457
C           -1.61217005427167       -0.21224999439028        0.24433615147943
C           -2.97060915428471       -0.47860081819418       -0.06468662111325
C           -3.94050535076533        0.54337568053205        0.05958044616482
C            1.70345200740380       -1.95790073910532        0.50176946024829
C            3.03631288655998       -1.68008240842541        0.51469765738871
F            3.87687287662205       -2.62097089653720        0.99677399024951
H            5.57149592607494       -1.09065417528435        0.47885240402659
H            3.00862330854127        1.41607013238269       -0.84094708840652
H            0.63552834491029        0.95873757725749       -0.85965736441037
H           -0.37101081667314       -3.35772301187578       -0.31567257695627
H           -2.71886921303130       -3.80905512053872       -0.77340713902382
H           -5.01666565136101       -3.00387496723695       -1.09370935107098
H           -6.68243934844146       -1.19267653204815       -0.99027908088404
H           -7.26249017134717        1.13858076258938       -0.44602269850491
H           -6.59372300837598        3.37092662642638        0.34903111395130
H           -4.25845614385072        3.81046470466933        1.00224628363337
H           -1.95448853521320        2.98145964494429        1.36019668471779
H           -0.29119969758931        1.20307979239523        1.17507956574380
H            1.36840384319338       -2.90322105564397        0.89848904409927
