  41
  -69.8365161700000       0.119717832248492      !
 C         -5.6115793086        1.8733750682       -0.0950724582
 O         -4.2128772050        1.7211457762       -0.0674769645
 C         -3.6931735816        0.4627037368       -0.0059502517
 C         -4.4776298873       -0.7179865108        0.0465304787
 C         -3.8898120928       -1.9983068102        0.1204839769
 O         -4.4989003786       -3.0613191415        0.1780310980
 O         -2.5045751820       -2.0770518878        0.1274516680
 C         -1.7304286306       -0.9642461544        0.0676588357
 C         -0.3706886923       -1.1629143952        0.0714848749
 C          0.4687704781       -0.0253821957        0.0032041904
 C         -0.0647581455        1.2843364654       -0.0119399125
 C         -1.4242922050        1.4895325270       -0.0141655453
 C         -2.3002008592        0.3451508834        0.0085940885
 C          1.0721204261        2.1745636361       -0.0129131499
 C          1.2047589678        3.5511116230       -0.0435390431
 C          2.4803304690        4.0958180019       -0.0632905894
 C          3.6113750471        3.2822907457       -0.0742459964
 C          3.5043189478        1.9028522636       -0.0482284203
 C          2.2304121140        1.3535992584        0.0064891785
 N          1.8385571405        0.0293234700        0.0145107056
 C          2.6968770786       -1.0722538726       -0.0099507891
 C          3.7676087199       -1.1497485395        0.8810634180
 C          4.6124494609       -2.2420157470        0.8466500101
 C          4.4009853419       -3.2629543803       -0.0675075918
 C          3.3352053741       -3.1885818210       -0.9515409325
 C          2.4842250176       -2.1012324638       -0.9282135099
 H         -6.0524581324        1.3867319625       -0.9705799306
 H         -6.0779562670        1.4797495132        0.8134003658
 H         -5.7856385220        2.9464595768       -0.1536283318
 H         -5.5525551587       -0.6899603708        0.0409448291
 H          0.0231624885       -2.1623745946        0.1446099070
 H         -1.8642406358        2.4702224897       -0.0236737340
 H          0.3314016084        4.1842987777       -0.0576197437
 H          2.6019833225        5.1680783704       -0.0831778032
 H          4.5901842539        3.7355108276       -0.1081193297
 H          4.3844625724        1.2788177355       -0.0814559412
 H          3.9075253413       -0.3694168219        1.6141577209
 H          5.4346536694       -2.3018369214        1.5436394094
 H          5.0630349236       -4.1146724028       -0.0895877094
 H          3.1693674717       -3.9791985157       -1.6674519019
 H          1.6689160212       -2.0239415504       -1.6312840099
  41
  -69.8365159200000       0.119686165239360      !
 C         -5.6114540327        1.8770111794        0.1025344845
 O         -4.2130010348        1.7233486342        0.0655803540
 C         -3.6944038988        0.4640994338        0.0103203279
 C         -4.4798500357       -0.7162923791       -0.0339620887
 C         -3.8929629400       -1.9972503488       -0.1049484181
 O         -4.5031942663       -3.0599495473       -0.1566199870
 O         -2.5078317063       -2.0769739201       -0.1184182038
 C         -1.7327363402       -0.9645937087       -0.0621697361
 C         -0.3730957789       -1.1642722947       -0.0683411593
 C          0.4674794820       -0.0273545440       -0.0036313677
 C         -0.0653642977        1.2827329428        0.0114014398
 C         -1.4246932824        1.4889666594        0.0152906805
 C         -2.3015315724        0.3453098947       -0.0051353976
 C          1.0717961585        2.1725813150        0.0109341106
 C          1.2049025675        3.5490721805        0.0410668524
 C          2.4807008155        4.0933834077        0.0586877769
 C          3.6114383262        3.2793385285        0.0684312928
 C          3.5038721454        1.8999691615        0.0430391989
 C          2.2296477996        1.3511066064       -0.0102479580
 N          1.8373175664        0.0269126083       -0.0173682848
 C          2.6974264183       -1.0734154270        0.0034750050
 C          3.7662253686       -1.1462963613       -0.8904289043
 C          4.6150258569       -2.2355153955       -0.8593819773
 C          4.4090437684       -3.2584993409        0.0538174956
 C          3.3448155273       -3.1891383627        0.9400810101
 C          2.4900733586       -2.1045436920        0.9203898231
 H         -6.0447355459        1.4031536137        0.9889325441
 H         -5.7844313719        2.9509189083        0.1470546209
 H         -6.0859893262        1.4705034816       -0.7956286939
 H         -5.5547557541       -0.6877944807       -0.0235320943
 H          0.0200280785       -2.1641254739       -0.1403779257
 H         -1.8638441989        2.4700107086        0.0249331763
 H          0.3317279166        4.1825317011        0.0552163500
 H          2.6028119303        5.1655642399        0.0784793098
 H          4.5903623164        3.7320231613        0.1038339783
 H          4.3837673605        1.2757124388        0.0778795644
 H          3.9013292877       -0.3648935663       -1.6232442169
 H          5.4361302386       -2.2912950477       -1.5579938068
 H          5.0753984096       -4.1068576453        0.0746737117
 H          3.1840750478       -3.9808097385        1.6560048957
 H          1.6760289987       -2.0311519095        1.6254893289
  41
  -69.8365128800000       0.119301763964730      !
 C         -5.6123278036        1.8793421800        0.0394975934
 O         -4.2134469462        1.7251301181        0.0363860128
 C         -3.6946343227        0.4652848728        0.0013875004
 C         -4.4800203415       -0.7158259315       -0.0212516431
 C         -3.8933460471       -1.9976809172       -0.0745336937
 O         -4.5036313293       -3.0612903152       -0.1003639349
 O         -2.5083814896       -2.0773617462       -0.0995471436
 C         -1.7332064053       -0.9644248464       -0.0564702187
 C         -0.3736412008       -1.1644154050       -0.0648214236
 C          0.4674645458       -0.0275850062       -0.0052280450
 C         -0.0652331189        1.2826454309        0.0038142293
 C         -1.4244796445        1.4894108378        0.0013365070
 C         -2.3017877318        0.3460443523       -0.0112839597
 C          1.0719383437        2.1724571555        0.0104604757
 C          1.2050765119        3.5488639746        0.0436526723
 C          2.4807411463        4.0927516161        0.0786327872
 C          3.6110356854        3.2783496826        0.1020674938
 C          3.5033300618        1.8990828727        0.0715544787
 C          2.2297333072        1.3507674885        0.0005773323
 N          1.8374618070        0.0265149483       -0.0110166716
 C          2.6981847756       -1.0732616583        0.0005292497
 C          3.7695669364       -1.1337808416       -0.8913924028
 C          4.6181804975       -2.2233483702       -0.8738084250
 C          4.4093936359       -3.2593739836        0.0238814017
 C          3.3432347378       -3.2019813050        0.9086649027
 C          2.4890472755       -2.1167633031        0.9029485222
 H         -5.7861735946        2.9540485029        0.0538735312
 H         -6.0671358228        1.4505989560       -0.8588741429
 H         -6.0652043893        1.4273041278        0.9275036206
 H         -5.5547797451       -0.6874375475       -0.0013181506
 H          0.0183758060       -2.1650426590       -0.1310697252
 H         -1.8631926202        2.4707198392        0.0031415894
 H          0.3321133237        4.1827128294        0.0484732332
 H          2.6028473374        5.1648691075        0.1021957772
 H          4.5895404976        3.7306806343        0.1515607206
 H          4.3824947888        1.2743552309        0.1159909425
 H          3.9073530364       -0.3414147823       -1.6118771166
 H          5.4412700838       -2.2690914705       -1.5708495470
 H          5.0740971742       -4.1092429997        0.0328404250
 H          3.1797799805       -4.0041961087        1.6121199657
 H          1.6746696204       -2.0525867008        1.6084450345
  41
  -69.8365093800000       0.118860725412242      !
 C         -5.6109924245        1.8782521433       -0.0333931038
 O         -4.2128161026        1.7240475331        0.0099961691
 C         -3.6932870013        0.4640236828       -0.0063187949
 C         -4.4779235210       -0.7173897769       -0.0377494456
 C         -3.8900288416       -1.9994090822       -0.0695930100
 O         -4.4993413643       -3.0634589856       -0.0988125418
 O         -2.5048171675       -2.0785570926       -0.0667163502
 C         -1.7307347760       -0.9649230761       -0.0247508732
 C         -0.3710041522       -1.1637334708       -0.0261439413
 C          0.4686129565       -0.0255322803        0.0249416028
 C         -0.0647896411        1.2843318074        0.0332127214
 C         -1.4243735632        1.4897230905        0.0286303025
 C         -2.3003563008        0.3454409221        0.0076004690
 C          1.0719844645        2.1746690668        0.0300008544
 C          1.2053275451        3.5511655024        0.0595347499
 C          2.4813721892        4.0951343397        0.0758795768
 C          3.6123054255        3.2811629635        0.0827361765
 C          3.5046417352        1.9018088953        0.0569647692
 C          2.2300727039        1.3533993731        0.0080283671
 N          1.8382253146        0.0294961256        0.0054657881
 C          2.6979764885       -1.0717358486        0.0029583085
 C          3.7433079059       -1.1416629255       -0.9182498511
 C          4.5863065469       -2.2358226435       -0.9190566198
 C          4.3989046441       -3.2649949885       -0.0089040170
 C          3.3602155009       -3.1964540865        0.9071374852
 C          2.5103921655       -2.1077417430        0.9182110549
 H         -6.0359512978        1.4456846889       -0.9446958056
 H         -6.0933782210        1.4301666720        0.8410454737
 H         -5.7849668283        2.9531146384       -0.0293054794
 H         -5.5529139715       -0.6893163505       -0.0399570356
 H          0.0227897459       -2.1641731663       -0.0845872729
 H         -1.8641015777        2.4705613236        0.0284412256
 H          0.3323226110        4.1848389186        0.0753080979
 H          2.6035415851        5.1673309915        0.0960700069
 H          4.5912867386        3.7340776486        0.1146920323
 H          4.3842539128        1.2767343374        0.0869841719
 H          3.8639436252       -0.3535994200       -1.6465610427
 H          5.3873837117       -2.2907582417       -1.6405019574
 H          5.0588804487       -4.1185588720       -0.0148035995
 H          3.2145363463       -3.9929214488        1.6209977131
 H          1.7161149075       -2.0353208902        1.6457034161
  41
  -69.8365087600000       0.118782768748649      !
 C         -5.6106237444        1.8743372766       -0.1193875993
 O         -4.2124213675        1.7219941411       -0.0690352040
 C         -3.6935348753        0.4633798203       -0.0053518149
 C         -4.4783880110       -0.7173317210        0.0407616151
 C         -3.8911684550       -1.9976774898        0.1201496224
 O         -4.5012259855       -3.0602962253        0.1743027693
 O         -2.5060973631       -2.0765616030        0.1395251038
 C         -1.7313360854       -0.9641660458        0.0784889811
 C         -0.3717629626       -1.1634623377        0.0827166939
 C          0.4683680767       -0.0264446115        0.0116328389
 C         -0.0649497565        1.2833959017       -0.0020893925
 C         -1.4242881123        1.4893474040       -0.0027396703
 C         -2.3007278436        0.3454076173        0.0171949530
 C          1.0720096562        2.1735096762       -0.0073882546
 C          1.2041896637        3.5500599279       -0.0386468641
 C          2.4795909147        4.0949260611       -0.0657967999
 C          3.6104670370        3.2813507124       -0.0842317643
 C          3.5037011620        1.9018999925       -0.0571835265
 C          2.2302200889        1.3524398735        0.0061959077
 N          1.8382608189        0.0280618680        0.0169267245
 C          2.6971565960       -1.0729201342       -0.0103736831
 C          2.4793484449       -2.1051583518       -0.9237643942
 C          3.3319106513       -3.1912412646       -0.9499697665
 C          4.4046237263       -3.2609862434       -0.0740157671
 C          4.6211624256       -2.2369184774        0.8354992435
 C          3.7746204759       -1.1461453670        0.8730548674
 H         -5.7838564334        2.9474369542       -0.1770860130
 H         -6.0361392970        1.3902039963       -1.0036608367
 H         -6.0920255483        1.4775268495        0.7795982279
 H         -5.5532669053       -0.6893654596        0.0260973819
 H          0.0217680415       -2.1629341715        0.1573953612
 H         -1.8634978528        2.4703732719       -0.0113941054
 H          0.3305390713        4.1829437548       -0.0473240938
 H          2.6009981191        5.1671905033       -0.0865122422
 H          4.5889930646        3.7344332124       -0.1258764123
 H          4.3836584241        1.2780225333       -0.0970827430
 H          1.6595968197       -2.0307857665       -1.6220891519
 H          3.1625389997       -3.9839531649       -1.6627838202
 H          5.0685886145       -4.1111139616       -0.0991002599
 H          5.4491233205       -2.2928982360        1.5259495480
 H          3.9185152036       -0.3634342785        1.6028130239
  41
  -69.8365087600000       0.118782768748649      !
 C         -5.6112683064        1.8782153972        0.0376381797
 O         -4.2133744898        1.7229312916       -0.0106003907
 C         -3.6939726487        0.4636899925        0.0102184381
 C         -4.4781638945       -0.7180749032        0.0493088681
 C         -3.8900803674       -1.9998984060        0.0850352707
 O         -4.4996487785       -3.0636340944        0.1223936986
 O         -2.5048329317       -2.0791583776        0.0772955680
 C         -1.7310681319       -0.9656733525        0.0290599648
 C         -0.3712950413       -1.1645344834        0.0269854842
 C          0.4685566190       -0.0266666411       -0.0286862411
 C         -0.0654366009        1.2830241899       -0.0360800136
 C         -1.4248542140        1.4885732614       -0.0293985997
 C         -2.3010917261        0.3445427908       -0.0055989530
 C          1.0708735470        2.1739760453       -0.0328954549
 C          1.2029092023        3.5506108967       -0.0588348003
 C          2.4784786005        4.0957229406       -0.0740568771
 C          3.6098543769        3.2825896126       -0.0849188900
 C          3.5033348564        1.9030233129       -0.0632714294
 C          2.2293596931        1.3533879507       -0.0133202233
 N          1.8382417824        0.0290013234       -0.0111077480
 C          2.6989364425       -1.0711235570       -0.0108180029
 C          2.5073084601       -2.1105099413       -0.9216200508
 C          3.3584971082       -3.1982226303       -0.9121618495
 C          4.4029645450       -3.2628390894       -0.0023605384
 C          4.5948523347       -2.2302302587        0.9032391027
 C          3.7501880224       -1.1374219673        0.9042598086
 H         -6.0981505548        1.4226844457       -0.8302340359
 H         -6.0318370250        1.4537799915        0.9546605489
 H         -5.7848560675        2.9529812614        0.0250244017
 H         -5.5531641392       -0.6902418373        0.0562277914
 H          0.0221220841       -2.1650363168        0.0869594418
 H         -1.8638849570        2.4697326969       -0.0287093579
 H          0.3292048886        4.1833323611       -0.0721393607
 H          2.5998234754        5.1680739124       -0.0907838628
 H          4.5884938851        3.7362507308       -0.1173638537
 H          4.3835432007        1.2790461603       -0.0969899928
 H          1.7089589339       -2.0416028029       -1.6449330016
 H          3.2088569368       -3.9971754928       -1.6224942116
 H          5.0635952424       -4.1159334572        0.0026100313
 H          5.4000917060       -2.2822095680        1.6203670075
 H          3.8733547027       -0.3480889107        1.6308523801
  41
  -69.8364918800000       0.116679869117472      !
 C         -5.6113234205        1.8681275748       -0.1459429067
 O         -4.2129365573        1.7189496765       -0.0955606619
 C         -3.6922845919        0.4619890219       -0.0148027263
 C         -4.4761076176       -0.7190577947        0.0410174416
 C         -3.8879513301       -1.9980095784        0.1346265645
 O         -4.4974639056       -3.0605702809        0.1966766067
 O         -2.5031379498       -2.0756069650        0.1564536498
 C         -1.7294027373       -0.9628548331        0.0876037731
 C         -0.3697263647       -1.1611036705        0.0948710972
 C          0.4694122847       -0.0238344673        0.0186081177
 C         -0.0641501684        1.2857688613       -0.0007782657
 C         -1.4237433772        1.4904791767       -0.0082035077
 C         -2.2994485864        0.3457627087        0.0149764421
 C          1.0730668325        2.1757430729       -0.0049241967
 C          1.2058601393        3.5522585589       -0.0366455916
 C          2.4814999681        4.0968544663       -0.0585549456
 C          3.6124003850        3.2831406831       -0.0716798155
 C          3.5051712063        1.9037510204       -0.0444642516
 C          2.2313427056        1.3546081073        0.0138829129
 N          1.8392112510        0.0303975735        0.0258411926
 C          2.6957659669       -1.0721673264       -0.0101499969
 C          2.4706107375       -2.0981257916       -0.9289625215
 C          3.3196060510       -3.1865721008       -0.9661168775
 C          4.3960862378       -3.2649973598       -0.0955129586
 C          4.6196334705       -2.2474801354        0.8196255673
 C          3.7766933034       -1.1542221403        0.8680269998
 H         -6.0906941204        1.4837834128        0.7597216278
 H         -5.7868498014        2.9401655517       -0.2195036110
 H         -6.0379643534        1.3702546744       -1.0223669829
 H         -5.5509546946       -0.6925251829        0.0237336063
 H          0.0247007190       -2.1596460644        0.1770373685
 H         -1.8641346621        2.4709029537       -0.0240582933
 H          0.3326205468        4.1856217002       -0.0482586139
 H          2.6032528811        5.1690947589       -0.0786934001
 H          4.5911465424        3.7360964703       -0.1091635696
 H          4.3852075313        1.2797258370       -0.0799765879
 H          1.6480590250       -2.0164279213       -1.6232474487
 H          3.1452034190       -3.9734746425       -1.6841659500
 H          5.0578195900       -4.1165193529       -0.1296837230
 H          5.4508015781       -2.3103629034        1.5055781509
 H          3.9258970665       -0.3772423048        1.6028294480
  41
  -69.8362105500000       8.663744119790219E-002 !
 C         -5.5939081547        1.8413809607        0.3954807898
 O         -4.2081162523        1.7077166560        0.1876478694
 C         -3.6876270779        0.4559467801        0.0469292385
 C         -4.4707874466       -0.7249609853       -0.0197862436
 C         -3.8841366278       -1.9984596929       -0.1765959583
 O         -4.4936315053       -3.0590711652       -0.2645253712
 O         -2.4998668548       -2.0728811438       -0.2312633298
 C         -1.7264246908       -0.9609489018       -0.1486069503
 C         -0.3666974428       -1.1569106691       -0.1668641142
 C          0.4705488408       -0.0192672864       -0.0755206118
 C         -0.0637988203        1.2898110687       -0.0482365523
 C         -1.4235585761        1.4921485135       -0.0276755201
 C         -2.2968598868        0.3453442892       -0.0404250359
 C          1.0734978868        2.1798268709       -0.0380665820
 C          1.2055454254        3.5561887734        0.0010866225
 C          2.4807940285        4.1012329120        0.0341230939
 C          3.6117838190        3.2878963979        0.0497306625
 C          3.5053284631        1.9085394642        0.0142356816
 C          2.2322235459        1.3590985218       -0.0537885201
 N          1.8402047644        0.0347219052       -0.0735856150
 C          2.6916259308       -1.0697246462        0.0044262718
 C          3.7964781846       -1.1759175099       -0.8403302961
 C          4.6339256916       -2.2702526974       -0.7407021260
 C          4.3811926621       -3.2644468462        0.1923227754
 C          3.2799049028       -3.1626366082        1.0289193416
 C          2.4361583840       -2.0733846348        0.9402923259
 H         -5.9221014473        1.2869937090        1.2803237405
 H         -5.7630562729        2.9053826155        0.5522132774
 H         -6.1674625852        1.5087322225       -0.4752647945
 H         -5.5450285358       -0.7003428002        0.0232772813
 H          0.0300941362       -2.1530702913       -0.2657543384
 H         -1.8659735309        2.4714561534       -0.0015482393
 H          0.3318668198        4.1890224933        0.0114351972
 H          2.6019738428        5.1734303652        0.0598270527
 H          4.5902030940        3.7410459110        0.0931846231
 H          4.3856361892        1.2850062301        0.0497412576
 H          3.9704991067       -0.4170068329       -1.5884241878
 H          5.4838171751       -2.3528602845       -1.4011955353
 H          5.0384203647       -4.1170213351        0.2658269556
 H          3.0809963382       -3.9320984687        1.7593813896
 H          1.5932808735       -1.9725492863        1.6071608419
  41
  -69.8361533700000       8.155066532250302E-002 !
 C         -5.5913084432        1.8704697183       -0.3395667275
 O         -4.2082954479        1.7234452976       -0.1225910064
 C         -3.6904355518        0.4647295047       -0.0477026559
 C         -4.4758388275       -0.7168495598       -0.0511845403
 C         -3.8902992222       -1.9987995623        0.0097228595
 O         -4.5007812256       -3.0625268985        0.0298705754
 O         -2.5054528277       -2.0782298823        0.0465114829
 C         -1.7314711809       -0.9640227717        0.0614914392
 C         -0.3717739983       -1.1633683200        0.0735331596
 C          0.4684756437       -0.0251143239        0.0984784932
 C         -0.0645065670        1.2849918398        0.0922717718
 C         -1.4240674854        1.4907717914        0.0676369568
 C         -2.3000243313        0.3469058023        0.0397278088
 C          1.0720884229        2.1754029268        0.0799941673
 C          1.2067941201        3.5520379200        0.0998781192
 C          2.4833337544        4.0949527569        0.1037972000
 C          3.6140033269        3.2803542662        0.1074843628
 C          3.5051240480        1.9010430359        0.0919177743
 C          2.2296281366        1.3535989865        0.0561583136
 N          1.8382075064        0.0299547920        0.0660124108
 C          2.6978052394       -1.0699719192        0.0045195725
 C          3.7013249723       -1.1123525605       -0.9639404742
 C          4.5376607356       -2.2087204410       -1.0401229916
 C          4.3851769390       -3.2675309734       -0.1579766560
 C          3.3911566553       -3.2244829449        0.8076945653
 C          2.5484437191       -2.1332379852        0.8944642584
 H         -6.1761349223        1.4876152878        0.5024816416
 H         -5.7582581395        2.9420183951       -0.4354928381
 H         -5.9079532993        1.3694978731       -1.2596713567
 H         -5.5503176534       -0.6875056244       -0.0840069542
 H          0.0201772692       -2.1656379585        0.0431716010
 H         -1.8629380403        2.4718126036        0.0481272710
 H          0.3345231398        4.1866784481        0.1161692285
 H          2.6065606883        5.1671812035        0.1150380632
 H          4.5933811316        3.7329942912        0.1287422341
 H          4.3839829826        1.2746936100        0.1197826995
 H          3.7931713237       -0.2998377762       -1.6692709806
 H          5.3054580558       -2.2414867435       -1.7982702262
 H          5.0384356768       -4.1237896504       -0.2236623859
 H          3.2744440510       -4.0439272139        1.5005217769
 H          1.7897667948       -2.0823014691        1.6605834291
