  41
        -69.83651617
 C         -5.6115793086        1.8733750682       -0.0950724582
 O         -4.2128772050        1.7211457762       -0.0674769645
 C         -3.6931735816        0.4627037368       -0.0059502517
 C         -4.4776298873       -0.7179865108        0.0465304787
 C         -3.8898120928       -1.9983068102        0.1204839769
 O         -4.4989003786       -3.0613191415        0.1780310980
 O         -2.5045751820       -2.0770518878        0.1274516680
 C         -1.7304286306       -0.9642461544        0.0676588357
 C         -0.3706886923       -1.1629143952        0.0714848749
 C          0.4687704781       -0.0253821957        0.0032041904
 C         -0.0647581455        1.2843364654       -0.0119399125
 C         -1.4242922050        1.4895325270       -0.0141655453
 C         -2.3002008592        0.3451508834        0.0085940885
 C          1.0721204261        2.1745636361       -0.0129131499
 C          1.2047589678        3.5511116230       -0.0435390431
 C          2.4803304690        4.0958180019       -0.0632905894
 C          3.6113750471        3.2822907457       -0.0742459964
 C          3.5043189478        1.9028522636       -0.0482284203
 C          2.2304121140        1.3535992584        0.0064891785
 N          1.8385571405        0.0293234700        0.0145107056
 C          2.6968770786       -1.0722538726       -0.0099507891
 C          3.7676087199       -1.1497485395        0.8810634180
 C          4.6124494609       -2.2420157470        0.8466500101
 C          4.4009853419       -3.2629543803       -0.0675075918
 C          3.3352053741       -3.1885818210       -0.9515409325
 C          2.4842250176       -2.1012324638       -0.9282135099
 H         -6.0524581324        1.3867319625       -0.9705799306
 H         -6.0779562670        1.4797495132        0.8134003658
 H         -5.7856385220        2.9464595768       -0.1536283318
 H         -5.5525551587       -0.6899603708        0.0409448291
 H          0.0231624885       -2.1623745946        0.1446099070
 H         -1.8642406358        2.4702224897       -0.0236737340
 H          0.3314016084        4.1842987777       -0.0576197437
 H          2.6019833225        5.1680783704       -0.0831778032
 H          4.5901842539        3.7355108276       -0.1081193297
 H          4.3844625724        1.2788177355       -0.0814559412
 H          3.9075253413       -0.3694168219        1.6141577209
 H          5.4346536694       -2.3018369214        1.5436394094
 H          5.0630349236       -4.1146724028       -0.0895877094
 H          3.1693674717       -3.9791985157       -1.6674519019
 H          1.6689160212       -2.0239415504       -1.6312840099
  41
        -69.83621055
 C         -5.5939081547        1.8413809607        0.3954807898
 O         -4.2081162523        1.7077166560        0.1876478694
 C         -3.6876270779        0.4559467801        0.0469292385
 C         -4.4707874466       -0.7249609853       -0.0197862436
 C         -3.8841366278       -1.9984596929       -0.1765959583
 O         -4.4936315053       -3.0590711652       -0.2645253712
 O         -2.4998668548       -2.0728811438       -0.2312633298
 C         -1.7264246908       -0.9609489018       -0.1486069503
 C         -0.3666974428       -1.1569106691       -0.1668641142
 C          0.4705488408       -0.0192672864       -0.0755206118
 C         -0.0637988203        1.2898110687       -0.0482365523
 C         -1.4235585761        1.4921485135       -0.0276755201
 C         -2.2968598868        0.3453442892       -0.0404250359
 C          1.0734978868        2.1798268709       -0.0380665820
 C          1.2055454254        3.5561887734        0.0010866225
 C          2.4807940285        4.1012329120        0.0341230939
 C          3.6117838190        3.2878963979        0.0497306625
 C          3.5053284631        1.9085394642        0.0142356816
 C          2.2322235459        1.3590985218       -0.0537885201
 N          1.8402047644        0.0347219052       -0.0735856150
 C          2.6916259308       -1.0697246462        0.0044262718
 C          3.7964781846       -1.1759175099       -0.8403302961
 C          4.6339256916       -2.2702526974       -0.7407021260
 C          4.3811926621       -3.2644468462        0.1923227754
 C          3.2799049028       -3.1626366082        1.0289193416
 C          2.4361583840       -2.0733846348        0.9402923259
 H         -5.9221014473        1.2869937090        1.2803237405
 H         -5.7630562729        2.9053826155        0.5522132774
 H         -6.1674625852        1.5087322225       -0.4752647945
 H         -5.5450285358       -0.7003428002        0.0232772813
 H          0.0300941362       -2.1530702913       -0.2657543384
 H         -1.8659735309        2.4714561534       -0.0015482393
 H          0.3318668198        4.1890224933        0.0114351972
 H          2.6019738428        5.1734303652        0.0598270527
 H          4.5902030940        3.7410459110        0.0931846231
 H          4.3856361892        1.2850062301        0.0497412576
 H          3.9704991067       -0.4170068329       -1.5884241878
 H          5.4838171751       -2.3528602845       -1.4011955353
 H          5.0384203647       -4.1170213351        0.2658269556
 H          3.0809963382       -3.9320984687        1.7593813896
 H          1.5932808735       -1.9725492863        1.6071608419
