58
 energy: -98.585014873386 gnorm: 0.000064160533 xtb: 6.7.1 (edcfbbe)
C            6.75494280166843       -2.43956560853984       -1.34424825734834
C            5.48522593772683       -2.99419499519533       -1.31747869177167
C            4.39958157514897       -2.24025212614762       -0.91272382300693
C            4.56174303479058       -0.91321557642013       -0.51530670204140
C            5.84557835868492       -0.34846428179601       -0.59525618556622
C            6.93086042446371       -1.11094500656948       -0.99586759070129
O            6.07656296558557        0.96533630342440       -0.29358009532909
C            4.98257520849576        1.76489752249513       -0.09103471908152
C            5.21133796579459        3.12712843296210        0.01901773537431
C            4.15273935199171        3.99436823412146        0.23009524020726
C            2.86500145851643        3.49361909346137        0.32542712107502
C            2.63008768185714        2.13446453402963        0.22214594746453
C            3.68098512024927        1.24586399888539        0.01007416698190
N            3.49295249620864       -0.13389242324078       -0.08340461670863
C            2.32111970285112       -0.75412569754645        0.39224863978324
C            2.42170881683800       -1.77645804126440        1.32214869190480
C            1.25334891251492       -2.34832603327068        1.81519767579209
C            0.00629113097516       -1.86756861705356        1.38905743900431
C           -1.23852690997772       -2.35396958767051        1.81533684216236
C           -2.40950569169686       -1.78784915925279        1.32187644987238
C           -2.31360836206377       -0.76537298322844        0.39163514650993
N           -3.48835030333764       -0.15125382647327       -0.08477521983033
C           -4.55290888813085       -0.93617549153437       -0.51698394613255
C           -4.38365384182970       -2.26237532164161       -0.91421869878273
C           -5.46517101545804       -3.02200306842184       -1.31939421528360
C           -6.73773628213792       -2.47396853540328       -1.34680622250858
C           -6.92073086461890       -1.14626844861423       -0.99855175287962
C           -5.83962958907308       -0.37812777874869       -0.59745327637320
O           -6.07756841361970        0.93445680476365       -0.29583455803855
C           -4.98779657511025        1.73975832272454       -0.09324082792350
C           -5.22365030738385        3.10080669270366        0.01644005359865
C           -4.16958407458007        3.97359385375115        0.22733844720611
C           -2.87926159458746        3.47957254025683        0.32287802383207
C           -2.63727584925597        2.12162088014392        0.22007310499810
C           -3.68354436544463        1.22753707887659        0.00821137763512
N           -1.13624358332338       -0.29721960854080       -0.04796283361214
C            0.00383562645039       -0.79642921869581        0.42350332424219
N            1.14160234387419       -0.29167948643508       -0.04763121823600
H            7.60371130865842       -3.03118236295745       -1.64809789771111
H            5.33461415794382       -4.02033719187096       -1.61467466822435
H            3.41067197957592       -2.67149050032458       -0.90222369283842
H            7.90147963090653       -0.64206076626902       -1.02719570354194
H            6.22685276303837        3.48223623733332       -0.05657210289465
H            4.33776189236367        5.05303639736624        0.32007224413751
H            2.03333916820100        4.16140171263169        0.48773582783085
H            1.62937857705412        1.74017792825571        0.28566874429659
H            3.38978531759127       -2.09457816480075        1.67836400275697
H            1.29887828044561       -3.14420951861748        2.54317702013469
H           -1.28036956699106       -3.14987584937246        2.54352246792338
H           -3.37614336486594       -2.11051985906466        1.67792188716324
H           -3.39251491589172       -2.68844032623495       -0.90323354501729
H           -5.30908549407744       -4.04739198267267       -1.61639537817432
H           -7.58326957053529       -3.06999373615876       -1.65105322011068
H           -7.89376988243259       -0.68246138131682       -1.03032922182882
H           -6.24099054067994        3.45059551537347       -0.05934312685153
H           -4.36008922204253        5.03131802505170        0.31698045017700
H           -2.05110382144613        4.15174397085815        0.48497202013630
H           -1.63454829303165        1.73251533148506        0.28378995514106
