  58
        -98.61597026
 C          7.0850484489       -2.1767076940       -0.6859054784
 C          5.9022198161       -2.7897054267       -1.0590786503
 C          4.6941683725       -2.1353102524       -0.8903401405
 C          4.6523051617       -0.8665970490       -0.3238828651
 C          5.8571563900       -0.2297382934       -0.0112356658
 C          7.0647474548       -0.8878225068       -0.1809922532
 O          5.8796497205        1.0558449856        0.4544724221
 C          4.7616610953        1.8084019276        0.1753214476
 C          4.9020855086        3.1850092688        0.2205862849
 C          3.8179146027        4.0012991177       -0.0533834992
 C          2.6056355449        3.4337896600       -0.3965417895
 C          2.4606189768        2.0568073425       -0.4530941966
 C          3.5290884604        1.2259618747       -0.1448282149
 N          3.4425069819       -0.1841454125       -0.1092880742
 C          2.2958555928       -0.8662214594        0.2481981191
 C          2.4008413498       -2.0837124564        0.9764907300
 C          1.2576407731       -2.7242797283        1.3558104835
 C          0.0053207538       -2.1733642987        1.0220076126
 C         -1.2440429259       -2.7197155992        1.3731467229
 C         -2.3892277037       -2.0741035183        1.0080953576
 C         -2.2882342850       -0.8575947180        0.2784340546
 N         -3.4420119073       -0.1774959762       -0.0673317126
 C         -4.6302614434       -0.8770090381       -0.3358558868
 C         -4.6268377947       -2.1399351824       -0.9169657525
 C         -5.8147393751       -2.8138600304       -1.1423267485
 C         -7.0227506291       -2.2260301825       -0.8128046721
 C         -7.0458680298       -0.9427266024       -0.2933786135
 C         -5.8585759039       -0.2657464387       -0.0658827476
 O         -5.9258395132        1.0128211097        0.4148537175
 C         -4.8054857147        1.7863845533        0.2140963401
 C         -4.9683712011        3.1587087127        0.2952339389
 C         -3.8833766433        3.9983609262        0.1084528744
 C         -2.6450848081        3.4581959578       -0.1813164573
 C         -2.4773319283        2.0859106657       -0.2752083678
 C         -3.5492533436        1.2306142016       -0.0590687659
 N         -1.1314926605       -0.3234616446       -0.0415701541
 C          0.0035071277       -0.9404408688        0.3126291380
 N          1.1358680733       -0.3285991188       -0.0557282967
 H          8.0261713726       -2.6902193829       -0.8042380564
 H          5.9141761519       -3.7807010175       -1.4857360495
 H          3.7718777603       -2.6087535193       -1.1912990342
 H          7.9729459191       -0.3750962471        0.0923315584
 H          5.8651968470        3.5932977299        0.4827352483
 H          3.9297699788        5.0733367115       -0.0044624354
 H          1.7579060609        4.0611308793       -0.6245324139
 H          1.5144676868        1.6112962764       -0.7055306472
 H          3.3698050167       -2.4650578243        1.2573562037
 H          1.2992210610       -3.6411888744        1.9283017753
 H         -1.2815679053       -3.6358681150        1.9471066677
 H         -3.3573071058       -2.4507149732        1.2986377736
 H         -3.6850500418       -2.5941931260       -1.1850233497
 H         -5.7905665379       -3.8003223958       -1.5789152550
 H         -7.9489840590       -2.7542784179       -0.9757537407
 H         -7.9736780608       -0.4486997603       -0.0530602697
 H         -5.9504520099        3.5451449046        0.5166770026
 H         -4.0143836531        5.0666322485        0.1842265529
 H         -1.7945282564        4.1035021903       -0.3375682335
 H         -1.5121093650        1.6607803638       -0.4890445757
