58
 energy: -98.654969689732 gnorm: 0.000043754707 xtb: 6.7.1 (edcfbbe)
C            7.02316649780922       -2.28637249105927       -0.43821744353011
C            5.81434051422033       -2.90217048913651       -0.71147018542351
C            4.62988213033636       -2.19420534239748       -0.59893123274990
C            4.63759817496341       -0.86591860537978       -0.18767517880637
C            5.86729754394618       -0.23554866622551        0.02322532742757
C            7.05189637280423       -0.94621190358632       -0.09072970407982
O            5.93784349699914        1.09717351203392        0.33545559470402
C            4.83198954540384        1.84726731065296       -0.00215266810434
C            5.00978945539098        3.21635937381598       -0.11105323385803
C            3.93968505384806        4.02931099597077       -0.44553559611501
C            2.70275545628776        3.46365380925884       -0.69216746690871
C            2.52094998626996        2.09309761939045       -0.59362091910945
C            3.57629053841568        1.26915953685976       -0.22690470391006
N            3.45099119436332       -0.12521362421274       -0.03489670292926
C            2.29446260616296       -0.73478549737843        0.41524844170622
C            2.39611453923642       -1.83499962721136        1.31098626962304
C            1.25152730283875       -2.41141474381792        1.77853263761282
C            0.00190336953857       -1.91273690221471        1.36281928677299
C           -1.24773249135558       -2.40613622804455        1.78574570487292
C           -2.39279503244241       -1.83051687712952        1.31921232883330
C           -2.29315942292510       -0.73937583280645        0.41119168178896
N           -3.44728356680531       -0.13730165604384       -0.04925968306254
C           -4.64942183335021       -0.86338481980676       -0.14944847954273
C           -4.67573877067714       -2.20229321685354       -0.52368292883393
C           -5.87500236329211       -2.89123409596779       -0.58352323367180
C           -7.06484241278955       -2.24637801655831       -0.29342914409024
C           -7.06105942379711       -0.89680545655974        0.01608014482945
C           -5.86139355875694       -0.20495529331126        0.07702154547736
O           -5.89753122174137        1.13792778923101        0.34911961625849
C           -4.79774503008974        1.85518542546009       -0.07051217487700
C           -4.96415593633827        3.21802883404516       -0.25176285488083
C           -3.89928807877761        3.99442730682107       -0.67702456199830
C           -2.68078543211946        3.39762914325592       -0.94204764823647
C           -2.51053800939239        2.03291780934217       -0.77018594796680
C           -3.55924284511855        1.24754051238286       -0.31152697945583
N           -1.13488875616023       -0.24656511745927        0.02827801751791
C            0.00094927837423       -0.79670077056218        0.47978181197856
N            1.13673771458358       -0.24200262745796        0.03222285984654
H            7.94633639436085       -2.83917884393381       -0.51266736385350
H            5.78660589453760       -3.93704459406386       -1.01547580077881
H            3.68673928950971       -2.67106312680073       -0.81971552687230
H            7.98058377471412       -0.43258919033844        0.10112691177294
H            5.99068082290086        3.62215571752706        0.08097199441999
H            4.08154990081230        5.09637133679291       -0.51813432630441
H            1.86544953651876        4.08700304105654       -0.96462362734891
H            1.55733558251698        1.64709215555218       -0.76865742194409
H            3.36506524018866       -2.17452160164836        1.64140045534094
H            1.28977243065007       -3.23494595152030        2.47872940277739
H           -1.28519676917224       -3.22541440079363        2.49096361968894
H           -3.36028390039297       -2.16485849405415        1.65870874097599
H           -3.74762497681856       -2.70164860911349       -0.75789330635739
H           -5.87415048876439       -3.93432092956416       -0.85937239170744
H           -7.99899641823047       -2.78458069538594       -0.32639141800427
H           -7.97499850749906       -0.36126163663646        0.21849386878647
H           -5.93153377050879        3.64812717214057       -0.04458285814193
H           -4.03116900382117        5.05737586756315       -0.80653636384594
H           -1.84931522015317        3.99222650072452       -1.28700527779149
H           -1.56041939721671        1.56462620518298       -0.95850090788377
