  62
  -94.8150114068000       0.171314745399448      !
 C         -7.8908776311       -2.8391946094        1.0910549626
 C         -6.8598220790       -3.2596368378        0.2673877839
 C         -5.8618712571       -2.3790318106       -0.1063563890
 C         -5.8850282123       -1.0657022392        0.3545060485
 N         -4.8744069508       -0.1696158173       -0.0187848036
 C         -5.0679943131        1.0952406693       -0.5386854065
 C         -6.2493828679        1.7487334237       -0.8589572874
 C         -6.1592211109        3.0172505070       -1.3994588956
 C         -4.9269146188        3.6253449343       -1.6278678680
 C         -3.7475827577        2.9700574238       -1.3352774723
 C         -3.8125618284        1.6942067974       -0.7916400750
 C         -2.8170681905        0.7375344737       -0.3958835721
 C         -1.4312351622        0.7558451786       -0.3924484238
 C         -0.7375005900       -0.3524337270        0.0760107742
 C          0.7333514338       -0.3569330861        0.0727316309
 C          1.4345727904       -1.5082963665       -0.3108228321
 C          2.8130479879       -1.5477456727       -0.3573486861
 C          3.5102549732       -0.3983418963       -0.0138336679
 C          2.8234630512        0.7626339777        0.4084881637
 C          1.4380492063        0.7809193870        0.4439763652
 C          3.8289979893        1.7357380281        0.7327520689
 C          3.7773878613        3.0500353540        1.1771075710
 C          4.9629652743        3.7315681739        1.3661294688
 C          6.1881506050        3.1230999242        1.1028134694
 C          6.2650764187        1.8161173714        0.6611027692
 C          5.0779319792        1.1177142173        0.4934836674
 N          4.8711278881       -0.1720613804        0.0445852261
 C          5.8732379298       -1.0829658119       -0.3155797255
 C          5.8130554069       -1.7413139499       -1.5407374053
 C          6.8057314904       -2.6363805919       -1.8933432102
 C          7.8680353164       -2.8749851674       -1.0372888963
 C          7.9308968602       -2.2188977501        0.1808508665
 C          6.9373225126       -1.3302220669        0.5470917759
 C         -1.4496936222       -1.4596170217        0.5567574951
 C         -2.8289570607       -1.4972296404        0.5679807522
 C         -3.5157148975       -0.3992170582        0.0699964085
 C         -6.9184077531       -0.6467710614        1.1879220146
 C         -7.9176056106       -1.5317643899        1.5473776467
 H         -8.6705374182       -3.5286249636        1.3776115794
 H         -6.8368315391       -4.2770295487       -0.0935551333
 H         -5.0699826905       -2.6963389587       -0.7678292747
 H         -7.2091903378        1.2796241340       -0.7032555849
 H         -7.0651007724        3.5475745647       -1.6545533797
 H         -4.8990075613        4.6195167241       -2.0491636339
 H         -2.7917423076        3.4340020531       -1.5270399877
 H         -0.8982278596        1.6164494300       -0.7675519525
 H          0.8752966267       -2.3862128139       -0.5993651729
 H          3.3294235518       -2.4502967628       -0.6488296150
 H          0.9145127592        1.6638749837        0.7782842152
 H          2.8268569202        3.5260233636        1.3650021595
 H          4.9454687019        4.7540056051        1.7133987125
 H          7.0988053978        3.6871020916        1.2422690953
 H          7.2189783035        1.3603772675        0.4421784087
 H          4.9960758497       -1.5343149025       -2.2155785631
 H          6.7548443779       -3.1420879210       -2.8462349047
 H          8.6453656295       -3.5690439566       -1.3191970500
 H          8.7545964672       -2.4061157418        0.8537633107
 H          6.9710861706       -0.8348690844        1.5058812046
 H         -0.8992793401       -2.2999390681        0.9539301180
 H         -3.3541203260       -2.3525851804        0.9662052053
 H         -6.9240957683        0.3671443991        1.5594955288
 H         -8.7163590400       -1.2011785150        2.1948606340
  62
  -94.8148516738000       0.144672684777475      !
 C         -7.8507763232        1.4192386981        2.4823999482
 C         -7.8496093644        0.0936582316        2.0805132674
 C         -6.8647943341       -0.3771029362        1.2323375116
 C         -5.8745621361        0.4851613751        0.7697048512
 N         -4.8769783607        0.0107311944       -0.0926794305
 C         -5.0871257608       -0.7235939209       -1.2433105699
 C         -6.2785296956       -1.0903625156       -1.8527328034
 C         -6.2062492354       -1.8049422531       -3.0330869846
 C         -4.9820604740       -2.1446364441       -3.6045691642
 C         -3.7935899027       -1.7624552736       -3.0153404287
 C         -3.8405236612       -1.0428152602       -1.8290072839
 C         -2.8328320085       -0.4719094830       -0.9793973234
 C         -1.4476664199       -0.4695674301       -1.0211198424
 C         -0.7367109891        0.1725300548       -0.0149384009
 C          0.7335731440        0.1853477846       -0.0342793960
 C          1.4178945047        0.3223207997       -1.2504496763
 C          2.7953580942        0.3240282738       -1.3245510267
 C          3.5119318197        0.1961394548       -0.1434266060
 C          2.8430531575        0.0453013027        1.0924534456
 C          1.4578127531        0.0418400449        1.1425278114
 C          3.8636170428       -0.1010014122        2.0927790418
 C          3.8340001807       -0.2553346146        3.4722549803
 C          5.0312093416       -0.3412746303        4.1542869608
 C          6.2472631267       -0.2606554668        3.4793396223
 C          6.3025012523       -0.1069635034        2.1073030778
 C          5.1024784125       -0.0432854639        1.4137282887
 N          4.8757731351        0.1361190211        0.0634376942
 C          5.8605495951        0.2060458834       -0.9312679109
 C          5.8474603451        1.2422945893       -1.8605616772
 C          6.8161299695        1.2983746812       -2.8454434050
 C          7.8082152428        0.3338376638       -2.9064488872
 C          7.8266246451       -0.6942910170       -1.9784994891
 C          6.8560245926       -0.7651163761       -0.9968665750
 C         -1.4344203599        0.7936957231        1.0306752056
 C         -2.8127212113        0.7999049555        1.0948575633
 C         -3.5161934696        0.1744732329        0.0754660540
 C         -5.8804787228        1.8183246468        1.1700713537
 C         -6.8632752772        2.2771460072        2.0274455845
 H         -8.6188269414        1.7823176052        3.1483722828
 H         -8.6147322522       -0.5804581415        2.4367789269
 H         -6.8470994499       -1.4150462380        0.9349760631
 H         -7.2326299975       -0.8164621473       -1.4277950535
 H         -7.1200947481       -2.1039334239       -3.5255955326
 H         -4.9681628837       -2.7062467369       -4.5269495344
 H         -2.8445475605       -2.0106570114       -3.4664655945
 H         -0.9302090392       -0.9869208993       -1.8147105533
 H          0.8462078588        0.4452142400       -2.1583024406
 H          3.2955988576        0.4133726138       -2.2772965723
 H          0.9513158355       -0.1003067255        2.0852171930
 H          2.8913551929       -0.3021231182        3.9965868504
 H          5.0305560548       -0.4634036183        5.2273116330
 H          7.1679722454       -0.3149844927        4.0415487080
 H          7.2498710817       -0.0265405153        1.5957171916
 H          5.0859455735        2.0050010338       -1.7964199500
 H          6.8007200561        2.1042666606       -3.5642994666
 H          8.5645742819        0.3827835138       -3.6752179513
 H          8.5953712889       -1.4515331448       -2.0250693639
 H          6.8526810145       -1.5783462372       -0.2865278984
 H         -0.8734167874        1.2978276552        1.8036426490
 H         -3.3233987962        1.2721992625        1.9205922173
 H         -5.1224537407        2.4897889830        0.7951459720
 H         -6.8624832568        3.3123145845        2.3353815703
  62
  -94.8147875360000       0.135179504109943      !
 C         -7.8526154722       -3.0482848330       -0.5331203176
 C         -7.9199507080       -1.8480155162       -1.2208352769
 C         -6.9346346048       -0.8921728334       -1.0557289722
 C         -5.8745726852       -1.1305510647       -0.1858981849
 N         -4.8771219618       -0.1635824439       -0.0022886666
 C         -5.0832930434        1.1655702192        0.3119724712
 C         -6.2709868963        1.8536789285        0.5137208913
 C         -6.1929264703        3.1937514787        0.8417690634
 C         -4.9662948591        3.8397839442        0.9775856746
 C         -3.7806825653        3.1541679947        0.8043436127
 C         -3.8333215379        1.8066967121        0.4741889148
 C         -2.8281477531        0.8074511763        0.2400160804
 C         -1.4423947681        0.8329016292        0.2497096818
 C         -0.7368655614       -0.3262855747       -0.0492472573
 C          0.7333051829       -0.3280593219       -0.0265005698
 C          1.4292135663       -1.4525779254        0.4400369113
 C          2.8070348169       -1.4974828653        0.4922333405
 C          3.5122572246       -0.3765343019        0.0789910002
 C          2.8325547759        0.7617573967       -0.4107989562
 C          1.4477223302        0.7811779756       -0.4624557700
 C          3.8441824305        1.7124104469       -0.7804921803
 C          3.8012593069        3.0044067325       -1.2868381937
 C          4.9911573885        3.6701607827       -1.5031593300
 C          6.2123469137        3.0683145589       -1.2079297152
 C          6.2807787135        1.7834858904       -0.7040954544
 C          5.0891122402        1.1009142367       -0.5061377271
 N          4.8743943473       -0.1618052922        0.0102888960
 C          5.8688443069       -1.0779068044        0.3782260220
 C          6.9070166598       -1.3719880301       -0.5014971714
 C          7.8866742167       -2.2762155055       -0.1361482878
 C          7.8353819325       -2.9012412316        1.0987596432
 C          6.8010984902       -2.6129167353        1.9735490112
 C          5.8228902488       -1.7014964781        1.6218712938
 C         -1.4414384311       -1.4936090000       -0.3778727781
 C         -2.8198767008       -1.5441393843       -0.3853546042
 C         -3.5165179349       -0.3916155186       -0.0513734186
 C         -5.8101882089       -2.3364717408        0.5070168533
 C         -6.7943971864       -3.2901337494        0.3271624626
 H         -8.6225258983       -3.7931187507       -0.6670072914
 H         -8.7406814254       -1.6576647668       -1.8966077630
 H         -6.9721653953        0.0350763517       -1.6076767495
 H         -7.2268423622        1.3589656597        0.4286453901
 H         -7.1041461517        3.7521933498        0.9988170907
 H         -4.9478744168        4.8894864828        1.2305213009
 H         -2.8293082491        3.6500095906        0.9254306400
 H         -0.9204394110        1.7422752888        0.5061618533
 H          0.8673830363       -2.3069202706        0.7872382308
 H          3.3161374082       -2.3836196806        0.8405386839
 H          0.9340592708        1.6429636927       -0.8607823966
 H          2.8539095757        3.4764756090       -1.4998772324
 H          4.9801988412        4.6755340694       -1.8973246786
 H          7.1263547633        3.6200858733       -1.3716731795
 H          7.2313002747        1.3330855269       -0.4602074826
 H          6.9305912342       -0.9002578258       -1.4725385379
 H          8.6892058270       -2.5007109654       -0.8231575279
 H          8.5993656575       -3.6108433520        1.3785273520
 H          6.7597185576       -3.0945684178        2.9394080116
 H          5.0280851662       -1.4569699166        2.3106509431
 H         -0.8864293862       -2.3769570621       -0.6569507667
 H         -3.3375468620       -2.4517952968       -0.6581147163
 H         -4.9953105208       -2.5115775092        1.1935829116
 H         -6.7395274180       -4.2230261686        0.8686390489
  62
  -94.8146319930000       0.114664302995035      !
 C         -7.7104864076       -2.8281862230        1.4604839738
 C         -7.8807435717       -2.2795864386        0.2002333487
 C         -6.9396603705       -1.4075104940       -0.3154604576
 C         -5.8206695634       -1.0673428902        0.4392041174
 N         -4.8625742487       -0.1808777363       -0.0700288451
 C         -5.1103065321        1.0665096352       -0.6087681646
 C         -6.3152714218        1.7317449704       -0.7835211519
 C         -6.2795760839        2.9986692934       -1.3339995259
 C         -5.0769624371        3.6010839437       -1.6963536284
 C         -3.8726570026        2.9553071551       -1.4998680707
 C         -3.8824921616        1.6812295508       -0.9481858568
 C         -2.8465630371        0.7524065474       -0.5895999369
 C         -1.4624895883        0.7903017931       -0.6703661742
 C         -0.7283652003       -0.3069184009       -0.2400650247
 C          0.7423971697       -0.2855509246       -0.2547255620
 C          1.4611227335       -1.4172281200       -0.6630660064
 C          2.8397234261       -1.4603140855       -0.6361449966
 C          3.5178659846       -0.3363493654       -0.1869688863
 C          2.8124533359        0.8153125920        0.2300705711
 C          1.4269256190        0.8392488357        0.1862796346
 C          3.7994994275        1.7560102837        0.6822976784
 C          3.7280628595        3.0468434808        1.1887128443
 C          4.9012484908        3.6894579021        1.5300689480
 C          6.1355016381        3.0668836953        1.3571448473
 C          6.2324737692        1.7839353667        0.8532420979
 C          5.0552382430        1.1238765561        0.5313749814
 N          4.8716700541       -0.1364311247       -0.0015601551
 C          5.8751652892       -1.0873464479       -0.2321571648
 C          5.9549256323       -1.7391455596       -1.4593616177
 C          6.9343013351       -2.6916343192       -1.6723627526
 C          7.8448391252       -2.9940006162       -0.6734780834
 C          7.7720584006       -2.3400052002        0.5453385486
 C          6.7902733382       -1.3935560831        0.7712964061
 C         -1.3962568678       -1.4408476379        0.2426184308
 C         -2.7706790118       -1.4968537256        0.3405664093
 C         -3.4967608638       -0.3825411174       -0.0544167803
 C         -5.6551511027       -1.6142572263        1.7091867298
 C         -6.5945977256       -2.4952897813        2.2105723244
 H         -8.4449058220       -3.5127840716        1.8572402858
 H         -8.7473708628       -2.5396013579       -0.3897002520
 H         -7.0573788584       -0.9988334864       -1.3079224689
 H         -7.2516285053        1.2824620582       -0.4886316116
 H         -7.2052916425        3.5348325431       -1.4836825227
 H         -5.0917822330        4.5910134560       -2.1277160848
 H         -2.9390397702        3.4281880151       -1.7651870640
 H         -0.9632080545        1.6558662069       -1.0795385914
 H          0.9162267467       -2.2789963384       -1.0195905046
 H          3.3693790400       -2.3510871665       -0.9389270150
 H          0.8857536083        1.7096275574        0.5260653617
 H          2.7722378809        3.5341054472        1.3094156173
 H          4.8677607489        4.6920398603        1.9300699756
 H          7.0373386840        3.6000293483        1.6201553744
 H          7.1944915816        1.3159289154        0.7070550605
 H          5.2560447226       -1.4860988996       -2.2426654782
 H          6.9907611119       -3.1957053412       -2.6259091980
 H          8.6088802561       -3.7373974821       -0.8440156190
 H          8.4773336709       -2.5753335836        1.3287429389
 H          6.7149710827       -0.8985439848        1.7280867403
 H         -0.8120000102       -2.2877776698        0.5709620710
 H         -3.2618224207       -2.3840531729        0.7112936022
 H         -4.7972008680       -1.3325324368        2.3013650883
 H         -6.4599007894       -2.9149806628        3.1966254989
  62
  -94.8146064342000       0.111604633149081      !
 C         -7.9798752883        1.1089613968       -2.5026797655
 C         -7.9361820697        1.5399655423       -1.1871633667
 C         -6.8990260340        1.1512847452       -0.3600276529
 C         -5.8984183041        0.3142025279       -0.8457323114
 N         -4.8588908342       -0.1012157345       -0.0026524444
 C         -5.0185365629       -0.6622638186        1.2497393722
 C         -6.1810889891       -0.9697960491        1.9420887026
 C         -6.0549268458       -1.5511213026        3.1893807113
 C         -4.8064516239       -1.8333116358        3.7393894597
 C         -3.6469987959       -1.5555071295        3.0440095009
 C         -3.7489576345       -0.9708785102        1.7890594447
 C         -2.7814238980       -0.5698552780        0.8074556914
 C         -1.3972643855       -0.6050802503        0.7737765314
 C         -0.7317150951       -0.0867248197       -0.3288769105
 C          0.7398903827       -0.1096033300       -0.3508227312
 C          1.4098570803       -1.2857259003        0.0125717028
 C          2.7854013248       -1.3548096940        0.0790710553
 C          3.5069784117       -0.2080831345       -0.2188665308
 C          2.8516638783        0.9896942185       -0.5847858919
 C          1.4669035033        1.0301686445       -0.6635184707
 C          3.8800411664        1.9792775686       -0.7518590404
 C          3.8679628803        3.3218002591       -1.1062201726
 C          5.0686858113        4.0001080975       -1.1719798568
 C          6.2733858778        3.3536802546       -0.9036748483
 C          6.3122822834        2.0180424814       -0.5522955355
 C          5.1068438262        1.3369402344       -0.4636962212
 N          4.8678011182        0.0137245715       -0.1548854114
 C          5.8254447288       -0.9354109692        0.2297723194
 C          5.8761824708       -2.1718152029       -0.4072012808
 C          6.8049292033       -3.1153650292       -0.0091376572
 C          7.6916751164       -2.8332130373        1.0167420692
 C          7.6475409206       -1.6001433345        1.6460136937
 C          6.7176075785       -0.6528586351        1.2598588336
 C         -1.4656637150        0.4704114378       -1.3829832410
 C         -2.8465211331        0.4990760029       -1.3782000815
 C         -3.5075364223       -0.0370971427       -0.2818695756
 C         -5.9428803887       -0.1167227307       -2.1685078926
 C         -6.9793119501        0.2849312787       -2.9905936232
 H         -8.7910046774        1.4151512900       -3.1459174891
 H         -8.7106730173        2.1879083504       -0.8040878333
 H         -6.8505411824        1.5009841976        0.6604484085
 H         -7.1546666178       -0.7719322117        1.5193962661
 H         -6.9455176432       -1.7949619442        3.7498400276
 H         -4.7504918113       -2.2839519815        4.7192074560
 H         -2.6785063832       -1.7878059874        3.4607821107
 H         -0.8407782535       -1.0046901970        1.6082497440
 H          0.8251511219       -2.1650193439        0.2403405613
 H          3.2804709364       -2.2671635313        0.3762100654
 H          0.9598368269        1.9469956296       -0.9251212720
 H          2.9358198807        3.8207311054       -1.3250258947
 H          5.0803851663        5.0459869833       -1.4409349312
 H          7.1976830658        3.9081671743       -0.9745422763
 H          7.2510031344        1.5199159794       -0.3606303342
 H          5.1924693530       -2.3809541331       -1.2165569942
 H          6.8388248965       -4.0742134115       -0.5050761367
 H          8.4151695236       -3.5726589963        1.3254369826
 H          8.3355573255       -1.3774141199        2.4482766495
 H          6.6665417164        0.3029445296        1.7599472446
 H         -0.9318191565        0.8757403369       -2.2303161866
 H         -3.3919790436        0.9379940868       -2.2004210416
 H         -5.1725614504       -0.7766593692       -2.5389177644
 H         -7.0092813034       -0.0526535090       -4.0161095910
  62
  -94.8144957921000       9.927379761554928E-002 !
 C         -7.8684318381       -2.8442050550        1.0874425148
 C         -7.7623504507       -2.4132336939       -0.2246046336
 C         -6.7667217894       -1.5261417812       -0.5885837124
 C         -5.8710617603       -1.0557526609        0.3675328973
 N         -4.8587614438       -0.1584376808       -0.0001322193
 C         -5.0317604163        1.0009471111       -0.7294349675
 C         -6.2018288233        1.5969495445       -1.1777717926
 C         -6.0933899700        2.7812992622       -1.8810473901
 C         -4.8553708736        3.3710782449       -2.1277765787
 C         -3.6899755343        2.7960644497       -1.6623687644
 C         -3.7732993326        1.6045917432       -0.9544415743
 C         -2.7959595685        0.7500663184       -0.3404252375
 C         -1.4117928693        0.7848523432       -0.2750845536
 C         -0.7369655184       -0.2613029998        0.3387266254
 C          0.7345114513       -0.2801688214        0.3357809110
 C          1.4033949233       -1.4460527446       -0.0602921302
 C          2.7768652196       -1.4990522996       -0.1708569457
 C          3.4969610371       -0.3521463216        0.1309539586
 C          2.8466155402        0.8140319965        0.5931485278
 C          1.4623975268        0.8508602936        0.6778978228
 C          3.8819666409        1.7690341603        0.8766538033
 C          3.8728408182        3.0752605988        1.3471696558
 C          5.0766220827        3.7360073668        1.4900635177
 C          6.2780401661        3.1157827174        1.1547347937
 C          6.3133568837        1.8166956467        0.6848632627
 C          5.1092168445        1.1384741424        0.5637442985
 N          4.8612557451       -0.1420712368        0.1116210762
 C          5.8067517590       -1.0550360130       -0.3751722796
 C          5.6098268707       -1.6523250122       -1.6178002514
 C          6.5266220459       -2.5676158857       -2.0985763863
 C          7.6499849079       -2.8864792196       -1.3534603414
 C          7.8528711820       -2.2854483283       -0.1224416817
 C          6.9356891421       -1.3758314573        0.3718555794
 C         -1.4604703554       -1.3215437603        0.8993738693
 C         -2.8392360553       -1.3672448575        0.8627713267
 C         -3.5087422530       -0.3250509160        0.2375776031
 C         -5.9813766671       -1.4863575304        1.6863274315
 C         -6.9754023718       -2.3803704379        2.0390355207
 H         -8.6448453367       -3.5401913731        1.3671946264
 H         -8.4528929447       -2.7768462472       -0.9712062494
 H         -6.6666818713       -1.2033632448       -1.6142423914
 H         -7.1667533815        1.1553680003       -0.9779982378
 H         -6.9890965260        3.2626712997       -2.2453883147
 H         -4.8131547226        4.2953221009       -2.6847911555
 H         -2.7310458329        3.2588604970       -1.8410414254
 H         -0.8622549463        1.5949851022       -0.7306803728
 H          0.8191416048       -2.3191102421       -0.3115720513
 H          3.2731240417       -2.4064852348       -0.4810321565
 H          0.9576406502        1.7426245326        1.0185946137
 H          2.9402581001        3.5605899883        1.5930427345
 H          5.0917004639        4.7509269776        1.8588960568
 H          7.2030127991        3.6632122092        1.2622573994
 H          7.2484102602        1.3509989372        0.4119081204
 H          4.7426854861       -1.3845762192       -2.2031202663
 H          6.3670476787       -3.0275229508       -3.0627171371
 H          8.3657886731       -3.6001132189       -1.7326687276
 H          8.7271602163       -2.5329039355        0.4613908221
 H          7.0797339685       -0.9231818979        1.3415151012
 H         -0.9188899715       -2.1219153969        1.3822450122
 H         -3.3755851162       -2.2014314714        1.2898670075
 H         -5.2949457959       -1.1072640888        2.4287434810
 H         -7.0581300234       -2.7102457405        3.0641231814
  62
  -94.8144774106000       9.736146120284150E-002 !
 C         -7.8332865723       -3.0990892914       -0.3911904585
 C         -7.9180936934       -1.9353195588       -1.1372039017
 C         -6.9393065660       -0.9642850909       -1.0308786676
 C         -5.8683588777       -1.1502788605       -0.1617657993
 N         -4.8791470928       -0.1661413013       -0.0322726290
 C         -5.0954801690        1.1714492911        0.2365190589
 C         -6.2888395492        1.8581822403        0.4068002423
 C         -6.2215878631        3.2097745125        0.6864029092
 C         -4.9999162188        3.8683964106        0.8054374761
 C         -3.8087716100        3.1848328428        0.6643396336
 C         -3.8502947287        1.8259784378        0.3827744493
 C         -2.8372134469        0.8256599269        0.1890534516
 C         -1.4515655042        0.8583574737        0.2104875778
 C         -0.7364935256       -0.3048005488       -0.0497254524
 C          0.7333969698       -0.3043338590       -0.0114236105
 C          1.4247645944       -1.4367387572        0.4441518748
 C          2.8019536868       -1.4891959415        0.4987587411
 C          3.5134527874       -0.3651464931        0.1061965083
 C          2.8396186993        0.7872534251       -0.3582156643
 C          1.4551519424        0.8106196599       -0.4210684747
 C          3.8564328820        1.7450211947       -0.6950891077
 C          3.8221332759        3.0538494013       -1.1574029842
 C          5.0160602946        3.7226397624       -1.3407571992
 C          6.2333625766        3.1066933441       -1.0584481459
 C          6.2935942281        1.8045970669       -0.6000331650
 C          5.0977414788        1.1211056539       -0.4327256770
 N          4.8765300837       -0.1546240301        0.0469266237
 C          5.8671423497       -1.0975721919        0.3535412142
 C          6.8785127697       -1.3667963224       -0.5646081175
 C          7.8519283227       -2.3015128514       -0.2659050911
 C          7.8213315790       -2.9806122849        0.9409280717
 C          6.8149858060       -2.7153246970        1.8546598445
 C          5.8427384362       -1.7744815051        1.5693124360
 C         -1.4342587854       -1.4833907086       -0.3546186075
 C         -2.8120015325       -1.5429259113       -0.3663015232
 C         -3.5170689865       -0.3859602043       -0.0677236391
 C         -5.7852851771       -2.3205136588        0.5881883835
 C         -6.7631978183       -3.2897708403        0.4673657040
 H         -8.5985830861       -3.8555278693       -0.4786082769
 H         -8.7476708709       -1.7856356827       -1.8124088599
 H         -6.9908616758       -0.0660910401       -1.6279092576
 H         -7.2408920398        1.3543079699        0.3340369287
 H         -7.1373963636        3.7673178703        0.8175374722
 H         -4.9898390394        4.9267790524        1.0198536157
 H         -2.8615506653        3.6915011899        0.7727383691
 H         -0.9384592201        1.7779270673        0.4472309099
 H          0.8603969023       -2.2935861415        0.7802242232
 H          3.3055782786       -2.3834557072        0.8338461976
 H          0.9488907647        1.6814669805       -0.8087221274
 H          2.8783213709        3.5372582853       -1.3602958053
 H          5.0113690064        4.7415066439       -1.6989127137
 H          7.1504580067        3.6603644955       -1.1974007025
 H          7.2403123193        1.3403545867       -0.3671860273
 H          6.8855848361       -0.8508963702       -1.5133309663
 H          8.6328034954       -2.5074323540       -0.9831076386
 H          8.5802154978       -3.7138738826        1.1687239041
 H          6.7913216552       -3.2379690071        2.7995125409
 H          5.0701430126       -1.5486091637        2.2889152859
 H         -0.8747954093       -2.3705207103       -0.6111319994
 H         -3.3231200713       -2.4607625453       -0.6165186153
 H         -4.9610971011       -2.4546114877        1.2729442356
 H         -6.6938720499       -4.1944545587        1.0532974121
  62
  -94.8143538917000       8.543222691844149E-002 !
 C         -7.7986655838       -0.9031887495        2.7954708656
 C         -7.8635399616       -1.5070581796        1.5507271656
 C         -6.8955182088       -1.2484893356        0.5982223126
 C         -5.8556583818       -0.3686679589        0.8849705365
 N         -4.8746056822       -0.0980895390       -0.0784416999
 C         -5.1060859213        0.2777521171       -1.3869415679
 C         -6.3072562608        0.5131493769       -2.0402981806
 C         -6.2555451105        0.9111509370       -3.3624869124
 C         -5.0416524058        1.0818959392       -4.0243215895
 C         -3.8428046634        0.8730900056       -3.3724797808
 C         -3.8688323981        0.4728714553       -2.0432770753
 C         -2.8447087103        0.1924565607       -1.0757804905
 C         -1.4593705201        0.1961719357       -1.1299230730
 C         -0.7344686053       -0.1450085362        0.0043821189
 C          0.7360737134       -0.1348326557       -0.0162656083
 C          1.4276882391       -0.6354163474       -1.1280046378
 C          2.8057903716       -0.6439308182       -1.1932651516
 C          3.5126670455       -0.1231892477       -0.1186675379
 C          2.8353703870        0.3661686652        1.0211091088
 C          1.4500191871        0.3606018515        1.0670080451
 C          3.8487065372        0.7785337827        1.9517141960
 C          3.8074819631        1.3463391313        3.2179760510
 C          4.9987748915        1.6464641622        3.8475463573
 C          6.2197155250        1.4012074098        3.2232228849
 C          6.2863214815        0.8372667528        1.9634979217
 C          5.0928690668        0.5104146441        1.3357344920
 N          4.8754639250       -0.0327754887        0.0846526975
 C          5.8681457259       -0.4221536045       -0.8245664619
 C          5.8179501964        0.0149629725       -2.1452810632
 C          6.7975899204       -0.3750452269       -3.0393150476
 C          7.8370909160       -1.1912970598       -2.6253802054
 C          7.8909961288       -1.6235943833       -1.3106120921
 C          6.9100392704       -1.2479915281       -0.4119081917
 C         -1.4144966761       -0.5079198215        1.1753508282
 C         -2.7917638090       -0.5232954862        1.2505214209
 C         -3.5097818569       -0.1510930682        0.1230121186
 C         -5.7947637930        0.2411892578        2.1348922062
 C         -6.7613510317       -0.0322264319        3.0845735206
 H         -8.5542801346       -1.1107750463        3.5380253845
 H         -8.6683306075       -2.1902055840        1.3224035713
 H         -6.9303129356       -1.7350554528       -0.3651194346
 H         -7.2530134284        0.4016852299       -1.5315352766
 H         -7.1774201847        1.0976536371       -3.8935971176
 H         -5.0438857080        1.3913729178       -5.0589618169
 H         -2.9013337677        1.0216268942       -3.8796880377
 H         -0.9521922897        0.4794699385       -2.0399285851
 H          0.8610880024       -1.0507013373       -1.9484231821
 H          3.3148255079       -1.0587250146       -2.0504571752
 H          0.9339328861        0.7533047106        1.9301062802
 H          2.8603008349        1.5517702729        3.6937084281
 H          4.9893839551        2.0863737884        4.8337813941
 H          7.1354333725        1.6612117858        3.7337067447
 H          7.2375901681        0.6690437112        1.4813469940
 H          5.0190044817        0.6704084099       -2.4584799030
 H          6.7537467077       -0.0323471083       -4.0625588454
 H          8.6027720807       -1.4898950715       -3.3253476413
 H          8.6968287821       -2.2646666889       -0.9846576817
 H          6.9357295595       -1.6023655963        0.6076735339
 H         -0.8386669415       -0.8087933300        2.0381535910
 H         -3.2917212499       -0.8303513171        2.1570153656
 H         -4.9971006966        0.9368671649        2.3485707745
 H         -6.7088742900        0.4440832593        4.0524819643
  62
  -94.8136484410000       4.049664383218492E-002 !
 C         -7.7740899449        0.4667595962        2.8741135561
 C         -7.6687096954       -0.7101244104        2.1512937449
 C         -6.7142301151       -0.8352889650        1.1597078659
 C         -5.8596916716        0.2271914148        0.8773675612
 N         -4.8790368007        0.0880392096       -0.1147968093
 C         -5.0809307597       -0.4206238903       -1.3825626655
 C         -6.2688986145       -0.7262551899       -2.0308596047
 C         -6.1937482001       -1.1851110195       -3.3320768505
 C         -4.9703999201       -1.3326042077       -3.9820877724
 C         -3.7864518491       -1.0124955886       -3.3481814575
 C         -3.8362895049       -0.5491936847       -2.0404401234
 C         -2.8359739741       -0.1085849523       -1.1080690971
 C         -1.4520892948       -0.0598582963       -1.1574151656
 C         -0.7426225307        0.4030063278       -0.0549246704
 C          0.7276406700        0.4046131712       -0.0601493650
 C          1.4384945156        0.6015928595       -1.2536442684
 C          2.8154480338        0.5373416472       -1.3145649552
 C          3.5117580411        0.2938718232       -0.1395570592
 C          2.8183705240        0.1141108537        1.0787060437
 C          1.4342825308        0.1598150753        1.1119304372
 C          3.8143553371       -0.1308293307        2.0843574376
 C          3.7569577822       -0.3377367498        3.4559691610
 C          4.9383427912       -0.5133148590        4.1482453546
 C          6.1662294918       -0.4719438560        3.4913938873
 C          6.2485703314       -0.2679631656        2.1272986620
 C          5.0633043866       -0.1114514507        1.4230809592
 N          4.8671321404        0.1429430579        0.0795116672
 C          5.8667221541        0.1264653350       -0.9027333350
 C          5.9703755862        1.1610817602       -1.8273973686
 C          6.9559040785        1.1228639423       -2.7969648451
 C          7.8492953524        0.0658297793       -2.8465556725
 C          7.7508869029       -0.9621317825       -1.9233938005
 C          6.7620449798       -0.9388545879       -0.9583095489
 C         -1.4496456885        0.8182915640        1.0837371831
 C         -2.8254271180        0.7576240758        1.1636059659
 C         -3.5239480049        0.2905186356        0.0599612238
 C         -5.9746499412        1.4130747879        1.5961164282
 C         -6.9260594707        1.5251101374        2.5935516087
 H         -8.5151805382        0.5582998300        3.6537987386
 H         -8.3259022647       -1.5394828795        2.3677633503
 H         -6.6127127911       -1.7586121267        0.6087954286
 H         -7.2224963359       -0.5983637409       -1.5405763985
 H         -7.1044255453       -1.4296873572       -3.8589102509
 H         -4.9539700949       -1.6937569442       -4.9997196469
 H         -2.8393709099       -1.1123053940       -3.8569035716
 H         -0.9363870718       -0.4155279684       -2.0360857548
 H          0.8914621232        0.8192229602       -2.1586605733
 H          3.3290620854        0.6631157164       -2.2558233320
 H          0.9167324399       -0.0295055955        2.0396766038
 H          2.8060723108       -0.3525281708        3.9671025737
 H          4.9164512125       -0.6747406581        5.2158152821
 H          7.0748074628       -0.5964773032        4.0620664632
 H          7.2057214602       -0.2182735691        1.6299895985
 H          5.2879039883        1.9959110572       -1.7722791666
 H          7.0317557544        1.9277361791       -3.5131203813
 H          8.6191718443        0.0418498926       -3.6029818773
 H          8.4409354166       -1.7921536477       -1.9610411334
 H          6.6667961759       -1.7493440631       -0.2510080064
 H         -0.9005189643        1.2067429795        1.9281803097
 H         -3.3366999144        1.0552180027        2.0667084505
 H         -5.3252573558        2.2432516158        1.3618707141
 H         -7.0096152836        2.4465017001        3.1508078365
