112
 energy: -152.154370948311 gnorm: 0.000042187376 xtb: 6.7.1 (edcfbbe)
C            7.84613291665691       -2.17850262063455       -1.52518488648487
C            7.08225258947013       -1.17069729256030       -2.39715845572550
C            6.76968970224095       -1.79747816282497       -3.76429191102095
C            7.98955516667613        0.04181434851726       -2.62827375774449
C            5.77793353353790       -0.80188068782227       -1.70334322966655
C            4.84251090998126       -1.81120873456651       -1.43856890978764
C            3.63751631416068       -1.57266038030480       -0.80885234878002
C            3.35335720274984       -0.27501222933576       -0.41408572806851
C            4.26741829860446        0.76341483486866       -0.68772327287571
C            5.47162378235841        0.49553858942686       -1.32634670918071
C            3.66817529200052        1.97579131411957       -0.19979171192387
C            4.09825473833797        3.29623413325037       -0.16256375131620
C            3.29622814391597        4.26695259444792        0.41549270531609
C            3.69898517780535        5.73377840945986        0.48377772538259
C            5.05708447103408        6.00231821712691       -0.17189874597111
C            2.64349373935281        6.57930439504656       -0.24471019802246
C            3.78685922681263        6.16614170077868        1.95516765119040
C            2.07074014995924        3.87506757588217        0.97089387720796
C            1.62094598989788        2.57061384115602        0.94800614744518
C            2.41554140820871        1.61453727023612        0.33680054236229
N            2.22866879864819        0.24982994659214        0.20040010086830
C            1.09924603229577       -0.46816027136192        0.60307051448732
C            1.24319501921117       -1.64122983367583        1.33966467683522
C            0.11368782240490       -2.34503939528060        1.74464295462860
C            0.23564229249208       -3.56820513251541        2.58148954110117
O           -0.55395747223271       -3.80524295181899        3.48078386331359
C            1.35899533164859       -4.47906013664197        2.26363395209872
C            1.79747236250912       -4.65814766681981        0.95206092966900
C            2.82631442839540       -5.54091528915145        0.68089662714513
C            3.43283705751668       -6.24201185781814        1.71173114735705
C            2.99414317703254       -6.07754867652958        3.01656147089060
C            1.95389703806869       -5.21007834328653        3.29100063263100
C           -1.15554292201824       -1.87553199079159        1.42707398742189
C           -1.30298293067728       -0.72507120382426        0.65749388438560
N           -2.57746139817180       -0.29317535330640        0.28404372775418
C           -3.06974136240486        0.99737847383402        0.37622095527770
C           -2.49254023981152        2.14299749360662        0.89939142770725
C           -3.23012768860362        3.30938909195198        0.88720476635871
C           -4.53585718045898        3.37885219642032        0.38338454973363
C           -5.26188169461930        4.71714043868661        0.40310053343743
C           -6.68006704431735        4.62596080204349       -0.16864764601815
C           -5.36484501735614        5.21818983781135        1.85151494356676
C           -4.47129989654395        5.72754385480089       -0.44179852288847
C           -5.11518148097012        2.21968253225149       -0.10704383089776
C           -4.39283246169514        1.03313636218667       -0.10966412243887
C           -4.71307347898024       -0.30673755692667       -0.52132160966877
C           -5.84581709058329       -0.87427692513191       -1.09078456093038
C           -5.85452768487559       -2.22203486300972       -1.41126405079101
C           -7.06292607500456       -2.91254852013767       -2.02895100444526
C           -6.67450343438723       -3.47476902382751       -3.40462621625337
C           -8.24889080167759       -1.96223515460741       -2.22170315387032
C           -7.51508353229977       -4.05593692165468       -1.10813655579839
C           -4.69719598827334       -2.97283744042862       -1.16464512228506
C           -3.55804958338583       -2.43451799888187       -0.60036566991537
C           -3.57179640738817       -1.09152698085341       -0.25736582030761
C           -0.17204487316555       -0.02323516221379        0.24815681688837
H            7.27357044990883       -3.09020567779534       -1.37821387732266
H            8.79102501884923       -2.44159080457658       -1.99649534357813
H            8.05575913581048       -1.74690091932693       -0.54819961456640
H            6.20237662266097       -1.09928734020704       -4.37699781797311
H            6.18823801134872       -2.70937568740664       -3.66070675839599
H            7.69383586061234       -2.04139317592389       -4.28451782887579
H            7.50420576615103        0.77781637162623       -3.26547637694709
H            8.90431228998224       -0.27932363343719       -3.12292960546377
H            8.26493202467061        0.51042114681648       -1.68605830338514
H            5.06018791880003       -2.82481605636393       -1.73820164756350
H            2.94008283190733       -2.37803649251728       -0.63982455274286
H            6.14539437707864        1.31356259992125       -1.51887149482072
H            5.06012702723177        3.53665479348720       -0.58344564562770
H            5.85009028275417        5.45314092258614        0.33081886859925
H            5.04391526601298        5.72867705839401       -1.22459995302547
H            5.28883471201594        7.06351852763101       -0.10329124868446
H            2.55967099754663        6.26297210574989       -1.28281004246445
H            2.92620341757754        7.62992041108229       -0.22522752777132
H            1.66622234011142        6.48208756819327        0.22015122030808
H            2.82963677507284        6.06092390138075        2.45848189718854
H            4.09329116362167        7.20818219459083        2.02176436167687
H            4.51785736361962        5.55666478623740        2.48326941108480
H            1.44354821796284        4.61405812232536        1.44591926192258
H            0.68335933611361        2.30697887695178        1.41252074132671
H            2.22697627555208       -1.97665852844935        1.62896715947705
H            1.30884944418666       -4.12707004831715        0.14814529466635
H            3.15583114051300       -5.68500108864739       -0.33733100180531
H            4.24254990707123       -6.92339598264653        1.49686235671862
H            3.45950125472011       -6.63032982493409        3.81897175047779
H            1.59297089743908       -5.07372855539192        4.30022393476667
H           -2.02113780681603       -2.41195293017996        1.78447700209628
H           -1.49984022689814        2.12952738370147        1.32107303006408
H           -2.76980977512807        4.19827200471747        1.29109235218978
H           -7.29297131362753        3.94056715619034        0.41258087161867
H           -6.66376132292090        4.29953986699222       -1.20609162390583
H           -7.14870403100865        5.60762851998394       -0.13287936689129
H           -5.89862419181217        4.49329542219845        2.46332230904497
H           -5.90571076122618        6.16190822940114        1.88353365508854
H           -4.38302011544474        5.37510780151989        2.28960727016257
H           -4.37808870920705        5.36987434457555       -1.46557201727927
H           -3.47216188734372        5.88200074540938       -0.04362869951432
H           -4.98447023274575        6.68698942086039       -0.45633358689512
H           -6.12276687857243        2.20976537442978       -0.48755850764685
H           -6.69978307527323       -0.24448138909273       -1.27577553866343
H           -5.87764896244691       -4.20894319914885       -3.32287319915632
H           -7.53337155792621       -3.95491067329979       -3.86928047579632
H           -6.33289984418414       -2.67196653572064       -4.05541213524212
H           -7.99326734645459       -1.14875005410216       -2.89696111040996
H           -8.57704740756095       -1.54868271333076       -1.27062684770450
H           -9.08349865529108       -2.50901254198309       -2.65636934980585
H           -6.73640930915767       -4.80476176882183       -0.99169195344946
H           -7.76440872852356       -3.66822337101990       -0.12209172224047
H           -8.39635543292091       -4.54313524471540       -1.52064893423631
H           -4.68035988993400       -4.02031169045551       -1.42498074969227
H           -2.68404827653536       -3.04912666915371       -0.44344102189356
H           -0.27900593723223        0.85515012008417       -0.36980353051527
