  112
       -152.01178712
 C          7.7166226895       -2.1589811366       -1.9363457035
 C          6.9731434285       -1.0663606135       -2.7183720603
 C          6.6319164247       -1.5742704645       -4.1269846727
 C          7.9082608962        0.1378302591       -2.8597826533
 C          5.6851113418       -0.7241288738       -1.9871019924
 C          4.7357964166       -1.7345983684       -1.7816224523
 C          3.5435890676       -1.5181742543       -1.1232726780
 C          3.2896631777       -0.2439442841       -0.6365329722
 C          4.2173681587        0.7989216431       -0.8539659438
 C          5.4066042758        0.5548789149       -1.5220658608
 C          3.6353329028        1.9821398806       -0.2757183851
 C          4.0661837591        3.2943586081       -0.1646103486
 C          3.2696810284        4.2287599927        0.4849941870
 C          3.6758547889        5.6862875245        0.6346461556
 C          5.0241431204        5.9923083167       -0.0233723260
 C          2.6106725802        6.5736932960       -0.0259535815
 C          3.7848358043        6.0268183529        2.1281118086
 C          2.0510689077        3.8058426827        1.0327333029
 C          1.5995937233        2.5059851838        0.9369992795
 C          2.3882214992        1.5883107086        0.2588240677
 N          2.1914037092        0.2457690699        0.0317480119
 C          1.0725404747       -0.5046253707        0.4201259178
 C          1.2593759013       -1.6850820210        1.1132050999
 C          0.1515493010       -2.4651045699        1.5128374672
 C          0.2583082269       -3.6762774545        2.2790070492
 O         -0.7358816109       -4.1693079810        2.8809437915
 C          1.5625785961       -4.3559917250        2.3626986007
 C          2.4316477735       -4.4314867466        1.2698542093
 C          3.6429668977       -5.0820658093        1.3847174571
 C          4.0046981926       -5.6871767584        2.5794058595
 C          3.1270524852       -5.6587400135        3.6534994619
 C          1.9135626258       -5.0119056772        3.5474570939
 C         -1.1418410593       -1.9665460405        1.2220570037
 C         -1.3101954535       -0.7927303059        0.5189116347
 N         -2.6032778032       -0.3610079090        0.1959833172
 C         -3.1020873705        0.9109565169        0.3566887947
 C         -2.5184159210        2.0404221876        0.9124584917
 C         -3.2646339901        3.1992676749        0.9668825769
 C         -4.5820290816        3.2775219318        0.4959894480
 C         -5.3207038078        4.6026533424        0.5945810593
 C         -6.7364333379        4.5321016728        0.0154804377
 C         -5.4277412212        5.0064041227        2.0724594759
 C         -4.5411596509        5.6733501513       -0.1829821641
 C         -5.1678313906        2.1329306174       -0.0302547475
 C         -4.4394413756        0.9566142599       -0.0974696943
 C         -4.7542836161       -0.3710991101       -0.5566232950
 C         -5.8906220775       -0.9353503363       -1.1128842658
 C         -5.8836366885       -2.2750864578       -1.4805682300
 C         -7.0966188635       -2.9628427580       -2.0854771896
 C         -6.7335375829       -3.4885916450       -3.4819558112
 C         -8.2972579992       -2.0231003686       -2.2273287007
 C         -7.5094277120       -4.1324232172       -1.1800319067
 C         -4.7090082655       -3.0162384132       -1.2920750521
 C         -3.5634777700       -2.4793716709       -0.7421902205
 C         -3.5915636977       -1.1471375208       -0.3522142717
 C         -0.2070466860       -0.0395081692        0.0977689370
 H          7.1247319092       -3.0664784095       -1.8596747509
 H          8.6520293332       -2.4042969616       -2.4343976629
 H          7.9413065423       -1.8134583401       -0.9294152504
 H          6.0823275122       -0.8136353180       -4.6780718156
 H          6.0234093762       -2.4736116428       -4.0898680379
 H          7.5447183369       -1.8039538857       -4.6722116255
 H          7.4401946823        0.9321804158       -3.4368056559
 H          8.8131031231       -0.1661551629       -3.3818663053
 H          8.1977663675        0.5252555715       -1.8856317726
 H          4.9319674572       -2.7275429812       -2.1545277302
 H          2.8265688962       -2.3134528859       -1.0008908484
 H          6.0943539673        1.3698591374       -1.6709207140
 H          5.0203908278        3.5634107942       -0.5845982280
 H          5.8238800961        5.4148786312        0.4350098833
 H          4.9962328552        5.7819994934       -1.0902744538
 H          5.2577863080        7.0472073720        0.1043360681
 H          2.5137640213        6.3233701955       -1.0804453329
 H          2.8937523683        7.6208019505        0.0554354855
 H          1.6391752666        6.4475961470        0.4440167415
 H          2.8325729698        5.9019236720        2.6356067714
 H          4.1040503806        7.0590489639        2.2538604535
 H          4.5142907746        5.3786385016        2.6091087213
 H          1.4333640237        4.5164586815        1.5594369720
 H          0.6684865190        2.2086573583        1.3922392377
 H          2.2562915342       -1.9706181186        1.4045449837
 H          2.1329219146       -4.0136372386        0.3212447276
 H          4.3059513180       -5.1292358476        0.5322021698
 H          4.9545968703       -6.1930542711        2.6655948700
 H          3.3923160456       -6.1465057077        4.5803979825
 H          1.2240283812       -4.9874772828        4.3772295025
 H         -1.9920857890       -2.5212036927        1.5828677373
 H         -1.5156196933        2.0124693229        1.3066318019
 H         -2.8043477797        4.0747451357        1.3977319751
 H         -7.3478507550        3.8158528401        0.5595815921
 H         -6.7155981828        4.2586441551       -1.0371110124
 H         -7.2107623695        5.5076776352        0.0991787101
 H         -5.9590480739        4.2405543652        2.6337827366
 H         -5.9722820323        5.9434609299        2.1658283439
 H         -4.4468172162        5.1369793458        2.5210075005
 H         -4.4397275424        5.3812527495       -1.2262925281
 H         -3.5459156426        5.8195951068        0.2275433979
 H         -5.0686039131        6.6237828168       -0.1403550567
 H         -6.1837982758        2.1340067818       -0.3866338772
 H         -6.7615702615       -0.3178389412       -1.2519954313
 H         -5.9306478099       -4.2188486744       -3.4357477773
 H         -7.5989951585       -3.9635657927       -3.9387020418
 H         -6.4120975106       -2.6684715666       -4.1208212948
 H         -8.0667777692       -1.1891576355       -2.8865236511
 H         -8.6102558406       -1.6389722495       -1.2591208364
 H         -9.1344935355       -2.5684924857       -2.6577379534
 H         -6.7147882737       -4.8678847174       -1.0933498509
 H         -7.7469257742       -3.7694474309       -0.1821903667
 H         -8.3887927996       -4.6274136265       -1.5861713736
 H         -4.6858426133       -4.0529856410       -1.5881719528
 H         -2.6743910299       -3.0782788036       -0.6239836017
 H         -0.3361281112        0.8475665769       -0.4986750418
