112
 energy: -152.153270853957 gnorm: 0.000041205190 xtb: 6.7.1 (edcfbbe)
C            7.61933192276571        1.45074848460406       -2.64414631155555
C            7.42032802288729       -0.00612902563956       -2.19954565613846
C            8.43068321622776       -0.35483746033940       -1.09606811801659
C            7.70152871401794       -0.91240010264881       -3.40208668732247
C            6.00885698624381       -0.17001226772400       -1.65088105644670
C            5.07651588348946       -1.03984603914530       -2.22247079032155
C            3.79586834346354       -1.19791816742006       -1.72219271632308
C            3.43274721695518       -0.47007779314699       -0.60169439696666
C            4.34526812053104        0.43903473345955       -0.02469674721959
C            5.62086016590643        0.57928868306216       -0.54730230961768
C            3.65625918744116        1.07403139473246        1.06678264744224
C            4.03493435823246        2.03038355384689        1.99516804272614
C            3.13795405993795        2.45075296446542        2.96912861936306
C            3.57123925868491        3.51966945631439        3.96394833825042
C            4.77603370889877        3.00270173788435        4.76428336493206
C            3.96575070667577        4.78844944796371        3.19260060794535
C            2.46610103959385        3.89464663507804        4.95616228990090
C            1.86998133529643        1.86443565649504        2.99976114707070
C            1.46675687106705        0.90577295590712        2.08657927479507
C            2.35683173790185        0.52372385387525        1.09712217986276
N            2.22949914890020       -0.41291489902013        0.08368085183002
C            1.08576010948222       -1.15621220893552       -0.21488926016017
C            1.18600996604786       -2.52447574667689       -0.45494290611233
C            0.04835932373234       -3.25400681149947       -0.78454501814974
C            0.12620115662944       -4.70331722562557       -1.10505383812266
O           -0.60489688432132       -5.20479415611144       -1.94457915732001
C            1.12552610673896       -5.50837293288328       -0.36552644559919
C            1.69664220067281       -6.61305751831371       -0.99719021543107
C            2.61879765560755       -7.39837324884652       -0.33239684457283
C            2.96320510004689       -7.10201740377571        0.97752124267523
C            2.38053374373682       -6.02122523754774        1.62122813474343
C            1.46885020416787       -5.22236028375593        0.95574368852277
C           -1.18729062661808       -2.62173403458363       -0.87157821585063
C           -1.30017447431737       -1.26524513734479       -0.58247659682182
N           -2.54645895275327       -0.63862506277504       -0.62148810535187
C           -3.71273653377637       -1.12582319327179       -0.05426160555865
C           -3.93761358894129       -2.26942966881527        0.69629721945878
C           -5.21465170523005       -2.49538839102746        1.16963078685150
C           -6.28149599562770       -1.61713214528414        0.93666409236014
C           -7.65589155145362       -1.96466779685329        1.49228993628119
C           -8.70874188137103       -0.90081344507282        1.16602775758914
C           -8.11982104793458       -3.29649780406879        0.88353599028426
C           -7.56796549666270       -2.09374283989585        3.02048583329948
C           -6.03667454589589       -0.46129620372879        0.21309925642392
C           -4.76206553740963       -0.21140636621473       -0.27927449526953
C           -4.20039713625895        0.87991428443286       -1.02831710578758
C           -4.74614836673353        2.04701958014348       -1.54726278417507
C           -3.94595123268636        2.92330484709910       -2.26227162559499
C           -4.47117938009864        4.22891617534417       -2.84378057724342
C           -3.67865708179777        5.40004068280920       -2.24343951682210
C           -5.95520640323598        4.45449184602967       -2.53794899082521
C           -4.29704707244246        4.21136681187901       -4.36974511318327
C           -2.60087813911399        2.58466207395974       -2.46159396846472
C           -2.03341921416062        1.43026580684071       -1.95987199438917
C           -2.83562733151973        0.57884334791069       -1.21579727333907
C           -0.15917254199651       -0.53452054609221       -0.26170214743715
H            7.49736746279712        2.13930909618425       -1.81245811697907
H            8.61845849861285        1.58474560517652       -3.05390950839268
H            6.89330288814017        1.71228298750238       -3.41173264612218
H            8.28116079845153       -1.37909336445861       -0.75948840393547
H            8.32518682246331        0.30377504259286       -0.23839914249453
H            9.44654341701202       -0.26027886990093       -1.47447411835951
H            7.59029308769177       -1.96145074372942       -3.13670822144722
H            8.72479875783100       -0.75810736983753       -3.73935423914432
H            7.03736845634188       -0.68095610768181       -4.23185235249469
H            5.34238184197157       -1.61825061674816       -3.09182320482716
H            3.10375238447218       -1.86680445718165       -2.21185721613973
H            6.29900294407062        1.28049526071818       -0.08611263706354
H            5.03348076726163        2.43642196736394        1.94735784099723
H            4.50933590121956        2.09413897280435        5.30102365433570
H            5.61694218683993        2.77863443247734        4.11365652258748
H            5.09448364825901        3.75043761619233        5.48790312158081
H            3.12337842945755        5.14723950727484        2.60398602530119
H            4.79620259984590        4.60102932840532        2.51759247457935
H            4.26142070737773        5.57299715256574        3.88627949941888
H            1.59107394055823        4.28303006824093        4.43957834319067
H            2.83126567310279        4.67006400393063        5.62697816095065
H            2.17403100892393        3.03937418665741        5.56142842174512
H            1.16164832077995        2.15386156667062        3.75833600418564
H            0.48325553507245        0.46704897352862        2.16404361373382
H            2.14691402963640       -3.01009786734312       -0.39363097634185
H            1.40977649107963       -6.83204906807161       -2.01569551913899
H            3.06565975479633       -8.24425284091259       -0.83316493044271
H            3.68005511472942       -7.71830907298258        1.49947792973811
H            2.63793391480129       -5.79992757143491        2.64638701105550
H            1.00286181509441       -4.39209987160093        1.46544481204786
H           -2.05115119695555       -3.19512178541530       -1.17061004983910
H           -3.14315854579689       -2.96640248468253        0.91808164720343
H           -5.38361521638260       -3.39236838128703        1.74594265428414
H           -8.83000292168930       -0.78663524798183        0.09113369450245
H           -8.44147880630929        0.06000103068514        1.60025409661059
H           -9.66842782023347       -1.20204863358736        1.58169475517251
H           -7.43882954597383       -4.10576138521065        1.13294354364308
H           -8.17031927167776       -3.21695543171368       -0.20086925351064
H           -9.10835054870334       -3.55568810417315        1.25738407107611
H           -6.89475174149829       -2.89446313996505        3.31414488574215
H           -8.55102509028134       -2.30758641112244        3.43508253160519
H           -7.20366141967023       -1.16497910786560        3.45552415684574
H           -6.81352018443367        0.25956714338616        0.02086387532755
H           -5.79227625002617        2.24365226002779       -1.38286007695362
H           -2.62184364278787        5.33032911755986       -2.48618454865293
H           -4.05525920748835        6.34470048097486       -2.63055473349621
H           -3.77963730408840        5.40583596190883       -1.15969702930407
H           -6.56825582327355        3.66699665531182       -2.97055914388366
H           -6.27359522342588        5.40201835842783       -2.96848637266501
H           -6.13160186334728        4.49700331743352       -1.46545313294292
H           -4.68624241850404        5.13139407693713       -4.80129670024040
H           -3.25119163355373        4.12069906383654       -4.65006252432272
H           -4.83888802072343        3.37146797527952       -4.80066459673417
H           -1.96801102093292        3.24513783833480       -3.03467582316786
H           -0.99761540134146        1.20130462859960       -2.16123793250371
H           -0.23967892921476        0.52090040788013       -0.05537190700676
