  45
  -74.8076309000000       0.292556388598976      !
 C         -4.7794305767        3.4999502073        0.4807404676
 C         -3.3955419539        3.5458549470        0.5271254273
 C         -2.6489846705        2.3922418986        0.3819197765
 C         -3.2730498350        1.1618908957        0.1686333592
 C         -4.6783901190        1.1210089162        0.1751811726
 C         -5.4192645858        2.2829229852        0.3199493329
 O         -5.3730671312       -0.0490277069        0.0710853515
 C         -4.6571413363       -1.2021561283       -0.0708963793
 C         -5.3763167009       -2.3803676713       -0.1909215611
 C         -4.7156975426       -3.5809760242       -0.3875981888
 C         -3.3343817194       -3.5940784810       -0.4937182868
 C         -2.6092820885       -2.4242104478       -0.3724881997
 C         -3.2523933734       -1.2101115961       -0.1249590171
 N         -2.5527398674       -0.0164346386        0.0099082185
 C         -1.1514653826       -0.0046038892       -0.0066865063
 C         -0.4201737302       -0.7810389025        0.9218653830
 C          0.9381112226       -0.7586468653        0.9245928945
 C          1.6661606068        0.0213009944       -0.0338648802
 C          3.0490299616        0.0143929935       -0.0184718638
 N          3.8099358161       -0.6676844397        0.8310696808
 C          5.1043534516       -0.4934436509        0.6208838441
 C          6.1480413151       -1.0845699404        1.3625849896
 C          7.4489023385       -0.8090398038        1.0284581971
 C          7.7663218892        0.0468648143       -0.0336142851
 C          6.7671084192        0.6480377498       -0.7845684047
 C          5.4533058361        0.3833495890       -0.4649391871
 S          4.0191584617        0.9903587557       -1.2181505838
 C          0.9077567241        0.7840443855       -0.9772553715
 C         -0.4522394792        0.7813991974       -0.9490535743
 H         -5.3611157636        4.4012647976        0.5895097503
 H         -2.8892853577        4.4850842377        0.6855463509
 H         -1.5740287832        2.4350367367        0.4465146230
 H         -6.4945048240        2.2065205413        0.3137551324
 H         -6.4517792494       -2.3297552010       -0.1353998085
 H         -5.2803172005       -4.4953456090       -0.4756941037
 H         -2.8136272133       -4.5203634845       -0.6791897457
 H         -1.5372146083       -2.4413337155       -0.4814201666
 H         -0.9627414692       -1.3538191251        1.6607603283
 H          1.5098812664       -1.3128734712        1.6504435573
 H          5.8943510697       -1.7420232578        2.1784845572
 H          8.2519613825       -1.2598778182        1.5935915483
 H          8.8009177732        0.2417136726       -0.2711186168
 H          7.0095123951        1.3087092362       -1.6029525957
 H          1.4390299293        1.3553303793       -1.7232352216
 H         -1.0173723707        1.3434952298       -1.6792400144
  45
  -74.8076154100000       0.287800056716377      !
 C         -4.6633740581        3.4786907745        1.1066164541
 C         -3.2787489767        3.4977866110        1.0668819481
 C         -2.5699239647        2.3652759430        0.7135543956
 C         -3.2338115466        1.1764423968        0.4066727334
 C         -4.6397996847        1.1835349362        0.4030685160
 C         -5.3425334590        2.3233240479        0.7597469193
 O         -5.3728265477        0.0963689643        0.0249424984
 C         -4.6953932944       -1.0335777447       -0.3307913514
 C         -5.4526504436       -2.1345358704       -0.6970654318
 C         -4.8316652706       -3.3285195553       -1.0215473242
 C         -3.4513112126       -3.4251185517       -0.9494427332
 C         -2.6883165890       -2.3311276577       -0.5891297070
 C         -3.2915486482       -1.1044317189       -0.3054551382
 N         -2.5527596238        0.0174509662        0.0512970808
 C         -1.1516681816       -0.0148248014        0.0361625675
 C         -0.4127076579        0.2912757675        1.2020740273
 C          0.9456495449        0.2561703328        1.1901532607
 C          1.6661734034       -0.0538818878       -0.0106338308
 C          3.0491319912       -0.0536248297       -0.0073797991
 N          3.8241305042        0.2131317709        1.0382858919
 C          5.1151254046        0.1515050296        0.7549001076
 C          6.1718124232        0.3848317151        1.6591548470
 C          7.4668567422        0.2852584145        1.2196149143
 C          7.7661647135       -0.0435094583       -0.1084344028
 C          6.7539775182       -0.2824400281       -1.0260044425
 C          5.4458739074       -0.1867562968       -0.6038760608
 S          3.9999888065       -0.4331697972       -1.5201421430
 C          0.8996144774       -0.3534877544       -1.1810065043
 C         -0.4600177696       -0.3503662765       -1.1488528670
 H         -5.2156846971        4.3617208119        1.3855618237
 H         -2.7416249318        4.4027000876        1.3041837480
 H         -1.4939181053        2.3990738036        0.6601834962
 H         -6.4198628009        2.2829361304        0.7471327514
 H         -6.5258258126       -2.0335480345       -0.7117058559
 H         -5.4259463533       -4.1810949916       -1.3087439055
 H         -2.9614836539       -4.3611962174       -1.1671737937
 H         -1.6172013793       -2.4224903960       -0.5114106308
 H         -0.9491218669        0.5062403179        2.1156509087
 H          1.5222794347        0.4494990995        2.0796858408
 H          5.9330708428        0.6373894750        2.6797427815
 H          8.2795300988        0.4633998154        1.9091046521
 H          8.7964180807       -0.1123298506       -0.4225705742
 H          6.9818678874       -0.5367928654       -2.0499690258
 H          1.4246689508       -0.5699638583       -2.0988868748
 H         -1.0306690595       -0.5556071151       -2.0436971760
  45
  -74.8067481500000       0.114954446592846      !
 C         -5.0804405298        3.4087477841        0.2792374853
 C         -3.7252790263        3.5608160511        0.5261324941
 C         -2.8785728820        2.4695308940        0.4939842320
 C         -3.3697420534        1.1963949214        0.1983518394
 C         -4.7545059083        1.0466208419        0.0061936651
 C         -5.5955187161        2.1470133656        0.0348221477
 O         -5.3325954505       -0.1736940746       -0.1905169580
 C         -4.5162227980       -1.2672761213       -0.2105422661
 C         -5.1200936804       -2.4977313838       -0.4163289326
 C         -4.3507441970       -3.6454839447       -0.4977787498
 C         -2.9719915659       -3.5528313103       -0.4033819321
 C         -2.3617843305       -2.3296201238       -0.2004648435
 C         -3.1216147686       -1.1664729541       -0.0658922391
 N         -2.5423179939        0.0822025831        0.1423522213
 C         -1.1495815000        0.2124392799        0.2228052813
 C         -0.4149131996       -0.5206639554        1.1835238786
 C          0.9427623095       -0.4782771874        1.1977494326
 C          1.6658795249        0.2730826173        0.2128298062
 C          3.0434702017        0.1728424296        0.1469966552
 N          3.7987340085       -0.5975101535        0.9235795517
 C          5.0760291579       -0.5843583225        0.5788984503
 C          6.1054865576       -1.3244741778        1.1962639703
 C          7.3853353943       -1.2258458993        0.7141652706
 C          7.6959650648       -0.4013517952       -0.3742429857
 C          6.7114759337        0.3473036914       -1.0021226645
 C          5.4179747275        0.2570163244       -0.5364368080
 S          4.0029176173        1.0589551623       -1.1268380265
 C          0.9037641043        1.0680337667       -0.7007841077
 C         -0.4560216762        1.0411242898       -0.6876459976
 H         -5.7390895693        4.2622914818        0.2956958985
 H         -3.3222161196        4.5356911340        0.7514441673
 H         -1.8295046926        2.5920390656        0.7098124933
 H         -6.6493455870        1.9886369359       -0.1284290971
 H         -6.1927710165       -2.5280657407       -0.5195111852
 H         -4.8259751380       -4.6004852658       -0.6550458172
 H         -2.3603443236       -4.4362843803       -0.4981388583
 H         -1.2867876979       -2.2691494810       -0.1595463459
 H         -0.9563611301       -1.0854696844        1.9294976606
 H          1.5170098165       -1.0110975645        1.9376185431
 H          5.8564429937       -1.9589428588        2.0315819328
 H          8.1761628817       -1.7964207049        1.1795870324
 H          8.7133739126       -0.3482910034       -0.7304994662
 H          6.9485470695        0.9836819552       -1.8410921697
 H          1.4324520092        1.6654941767       -1.4277549045
 H         -1.0225370019        1.6073171139       -1.4133939707
  45
  -74.8066133600000       9.967369998223520E-002 !
 C         -5.0518300817        3.3230444343        1.1806397711
 C         -3.6892798163        3.5400771454        1.0531608452
 C         -2.8489156170        2.5180089399        0.6546841670
 C         -3.3543368689        1.2441815668        0.3888266277
 C         -4.7447628721        1.0509637220        0.4703123346
 C         -5.5794791794        2.0805117089        0.8734809704
 O         -5.3364958602       -0.1322117985        0.1350227856
 C         -4.5264713130       -1.1596974244       -0.2530276403
 C         -5.1399013171       -2.3624373993       -0.5654406581
 C         -4.3761889071       -3.4622824844       -0.9165485875
 C         -2.9945381538       -3.3626480384       -0.9217686227
 C         -2.3752958483       -2.1668709374       -0.6127936264
 C         -3.1279016847       -1.0311494906       -0.3080149287
 N         -2.5370406617        0.1916049471       -0.0031555267
 C         -1.1440106890        0.3292971467       -0.0624306053
 C         -0.4043858173        0.7136135502        1.0800240417
 C          0.9545140687        0.7069863737        1.0563825864
 C          1.6717921281        0.3284611089       -0.1268911889
 C          3.0474195580        0.1921179479       -0.0930091996
 N          3.8226720925        0.3751560260        0.9701147639
 C          5.0885616974        0.0605239278        0.7468132741
 C          6.1334922045        0.1182959336        1.6918983113
 C          7.3959078082       -0.2690504505        1.3222555270
 C          7.6747155507       -0.7154185311        0.0244314900
 C          6.6749865082       -0.7782234981       -0.9345609986
 C          5.3990007656       -0.3963491151       -0.5815133471
 S          3.9717114045       -0.3880703789       -1.5578860887
 C          0.9040837434        0.0481419453       -1.3016308553
 C         -0.4543710711        0.0247850478       -1.2577493273
 H         -5.7059081930        4.1192433149        1.4982055370
 H         -3.2750846111        4.5148168746        1.2579404269
 H         -1.7940671814        2.7028362120        0.5325247041
 H         -6.6382784986        1.8859441524        0.9313388355
 H         -6.2155729319       -2.4141931319       -0.5167745392
 H         -4.8586519177       -4.3945967760       -1.1625772981
 H         -2.3886902697       -4.2229722844       -1.1591250890
 H         -1.2993914821       -2.1104087556       -0.5937476481
 H         -0.9362455970        0.9513216924        1.9903734352
 H          1.5334662847        0.9466301258        1.9329952482
 H          5.9097136994        0.4585694813        2.6901317588
 H          8.1978376477       -0.2341359190        2.0455830271
 H          8.6789507780       -1.0157035656       -0.2328926458
 H          6.8865366237       -1.1213975341       -1.9358450771
 H          1.4269022685       -0.1558508681       -2.2236379668
 H         -1.0297257434       -0.1923794208       -2.1468491214
  45
  -74.8065286200000       9.112483865553148E-002 !
 C         -4.2491628210        3.5639756264        1.0886823073
 C         -2.8713586530        3.4235787826        1.0622018414
 C         -2.2945828692        2.2163009085        0.7177615051
 C         -3.0868414805        1.1088405545        0.4089329878
 C         -4.4817467355        1.2800061636        0.3856025867
 C         -5.0524122340        2.4940994417        0.7333047978
 O         -5.3303113114        0.2854296229       -0.0056974273
 C         -4.7817472242       -0.9076541986       -0.3768252761
 C         -5.6549653541       -1.9013185384       -0.7883549406
 C         -5.1720393815       -3.1528634190       -1.1307023464
 C         -3.8156412716       -3.4161678628       -1.0271449174
 C         -2.9372270479       -2.4300361920       -0.6203887688
 C         -3.3968431005       -1.1456629681       -0.3230986494
 N         -2.5396158416       -0.1255889550        0.0700764688
 C         -1.1505749957       -0.3050521582        0.0918415748
 C         -0.4182795023       -0.0272547501        1.2703585441
 C          0.9383553121       -0.0851066006        1.2742095360
 C          1.6647240545       -0.3865390245        0.0747251234
 C          3.0423477693       -0.2677842213        0.0585414340
 N          3.7905282350        0.1554098885        1.0724080686
 C          5.0671065975        0.2902150914        0.7515295303
 C          6.0873431988        0.7612558984        1.6034241788
 C          7.3667933010        0.8702423499        1.1222754542
 C          7.6863229060        0.5156701219       -0.1942089006
 C          6.7107080451        0.0427492963       -1.0593852714
 C          5.4169980387       -0.0642518048       -0.5977185613
 S          4.0101229115       -0.5976818208       -1.4522349439
 C          0.9048960559       -0.7456750197       -1.0835570656
 C         -0.4549280798       -0.7066879742       -1.0703816991
 H         -4.6984227360        4.5049817602        1.3628794078
 H         -2.2352009962        4.2609110333        1.3024705057
 H         -1.2214822155        2.1293954351        0.6740033774
 H         -6.1268800858        2.5781570472        0.7094172420
 H         -6.7078475784       -1.6724013604       -0.8243110790
 H         -5.8558500929       -3.9205001439       -1.4559009243
 H         -3.4359298234       -4.3991548402       -1.2577987795
 H         -1.8875041586       -2.6516107245       -0.5168106201
 H         -0.9631086640        0.1987946156        2.1763089586
 H          1.5092398607        0.1018090921        2.1687038674
 H          5.8317766953        1.0342654273        2.6146574526
 H          8.1502085133        1.2390445959        1.7687267316
 H          8.7034014646        0.6139807014       -0.5416989151
 H          6.9540815064       -0.2296568379       -2.0751093942
 H          1.4359275773       -1.0089468048       -1.9855620410
 H         -1.0170498765       -0.9232194305       -1.9677096323
  45
  -74.8062350200000       6.678940193525942E-002 !
 C         -4.1569774849        3.5595568254        1.1084208782
 C         -2.7831801031        3.4031145905        1.0222367539
 C         -2.2363930116        2.1884104471        0.6563712633
 C         -3.0552176263        1.0908738786        0.3835104603
 C         -4.4476392035        1.2776072837        0.4212421509
 C         -4.9880558318        2.4986510781        0.7915937002
 O         -5.3221379721        0.2893685557        0.0728981663
 C         -4.8016069206       -0.9068583884       -0.3280416243
 C         -5.7023983422       -1.8927006102       -0.6969222236
 C         -5.2470859337       -3.1459390049       -1.0693375502
 C         -3.8888495129       -3.4179331794       -1.0436835009
 C         -2.9829109601       -2.4401957632       -0.6782629467
 C         -3.4178168217       -1.1569003614       -0.3440089784
 N         -2.5359960916       -0.1490725926        0.0237371711
 C         -1.1486734618       -0.3479810158        0.0410787790
 C         -0.4225276521       -0.1007291696        1.2301741759
 C          0.9332292543       -0.1661565045        1.2413172723
 C          1.6649519981       -0.4290767779        0.0360552729
 C          3.0411096581       -0.2940874489        0.0337030427
 N          3.7748029180        0.0818753229        1.0769746525
 C          5.0489616743        0.2661478505        0.7734395462
 C          6.0538882626        0.7018364914        1.6616618307
 C          7.3314932532        0.8770888312        1.1958175080
 C          7.6635079949        0.6253860686       -0.1410541298
 C          6.7041341934        0.1850230081       -1.0411451283
 C          5.4128360820        0.0095384756       -0.5941823651
 S          4.0241835182       -0.5115885266       -1.4867977147
 C          0.9114006308       -0.7584906922       -1.1350919955
 C         -0.4493618028       -0.7234563410       -1.1266451718
 H         -4.5825902669        4.5062538206        1.4001528702
 H         -2.1274168435        4.2331321238        1.2334879277
 H         -1.1671576563        2.0859252951        0.5699686331
 H         -6.0613680679        2.5955858592        0.8163138773
 H         -6.7540859401       -1.6564332225       -0.6755241133
 H         -5.9531083217       -3.9080633390       -1.3579854160
 H         -3.5290012392       -4.4014411025       -1.3022735947
 H         -1.9303966053       -2.6681619772       -0.6343223967
 H         -0.9728961036        0.1103098044        2.1363978721
 H          1.5001266929       -0.0052297607        2.1433314934
 H          5.7872173078        0.8978790198        2.6877438417
 H          8.1028720234        1.2203558934        1.8701623386
 H          8.6781201949        0.7769308816       -0.4764110350
 H          6.9588834819       -0.0107425757       -2.0715903981
 H          1.4473666997       -0.9977158276       -2.0409528230
 H         -1.0074575385       -0.9203224946       -2.0310344964
  45
  -74.8059049800000       4.710116751877478E-002 !
 C         -5.2235554087        3.3491969865        0.2247837371
 C         -3.8770600739        3.5702283352        0.4659181107
 C         -2.9789566854        2.5200670036        0.4523166642
 C         -3.4086452313        1.2199661798        0.1800114022
 C         -4.7850144107        1.0008412770       -0.0073119280
 C         -5.6777286830        2.0600401357        0.0040565784
 O         -5.3063033317       -0.2484190731       -0.1801660022
 C         -4.4376635307       -1.3007291824       -0.2072011992
 C         -4.9803470049       -2.5599103384       -0.4094017755
 C         -4.1545841289       -3.6670070144       -0.5013470866
 C         -2.7812813401       -3.5043017373       -0.4232995197
 C         -2.2324107510       -2.2525335349       -0.2215967916
 C         -3.0491347659       -1.1300329265       -0.0719976904
 N         -2.5307857985        0.1445403098        0.1427743206
 C         -1.1463765551        0.3220749924        0.2632342798
 C         -0.4223898242       -0.4032159281        1.2391433474
 C          0.9341886653       -0.3581625162        1.2723648372
 C          1.6675128729        0.3832769338        0.2873670339
 C          3.0400024513        0.2387804733        0.2036851034
 N          3.7744738002       -0.5744858035        0.9561442524
 C          5.0391537333       -0.6327906237        0.5716005130
 C          6.0402319513       -1.4427463573        1.1462119352
 C          7.3059349929       -1.4213345586        0.6189410952
 C          7.6305707382       -0.6055468698       -0.4718732073
 C          6.6748540952        0.2118588419       -1.0570377774
 C          5.3947716259        0.1974471507       -0.5476159515
 S          4.0121786932        1.0889824071       -1.0846249300
 C          0.9160845235        1.1945741729       -0.6212962918
 C         -0.4440717850        1.1632517753       -0.6285441081
 H         -5.9225364988        4.1701932830        0.2274150912
 H         -3.5211634217        4.5671680374        0.6735633038
 H         -1.9373904028        2.6965668952        0.6667755956
 H         -6.7228560279        1.8481171189       -0.1542987730
 H         -6.0510863638       -2.6450896553       -0.5008962107
 H         -4.5821704938       -4.6449233083       -0.6542448416
 H         -2.1261471981       -4.3546758317       -0.5292550149
 H         -1.1615483693       -2.1375739839       -0.1921786825
 H         -0.9740976185       -0.9693861307        1.9765781537
 H          1.4995656824       -0.8882612673        2.0209217617
 H          5.7800244232       -2.0710588593        1.9828278254
 H          8.0735771338       -2.0486954332        1.0486919335
 H          8.6358150517       -0.6145077250       -0.8646701848
 H          6.9223748489        0.8404826877       -1.8988352485
 H          1.4534201540        1.8001852249       -1.3350047565
 H         -1.0005490060        1.7320539722       -1.3598372761
