  55
        -91.10223323
 C         -5.1545804279        3.1624286136       -2.0303796049
 C         -3.7760816156        3.1825109014       -2.0891765952
 C         -3.0296413863        2.2584881508       -1.3735056487
 C         -3.6514989427        1.3054713005       -0.5765168522
 C         -5.0523621995        1.2717979721       -0.5514892100
 C         -5.7916012245        2.1962722418       -1.2651932832
 O         -5.7540317370        0.3267026438        0.1554599161
 C         -5.0299614908       -0.6034402137        0.8592297035
 C         -5.7480514055       -1.5473239456        1.5693313404
 C         -5.0899694140       -2.5014350144        2.3317160545
 C         -3.7114773951       -2.4898158517        2.3912007842
 C         -2.9860997014       -1.5466204157        1.6789018723
 C         -3.6284001347       -0.6043951127        0.8850287075
 N         -2.9301250280        0.3595403662        0.1545258249
 C         -1.5198014883        0.3863404659        0.1656367965
 C         -0.8433723245        1.4946012244        0.6822890028
 C          0.5294208563        1.5018966801        0.6862657711
 C          1.2577807867        0.4148890432        0.1926521821
 C          0.5885636065       -0.7139666481       -0.3209346661
 C         -0.8081205675       -0.6923816888       -0.3309815113
 C          1.3526457908       -1.8485856840       -0.8210390675
 C          0.7430165017       -3.0103442520       -1.3086076093
 C          1.4885523794       -4.0707544663       -1.7760536101
 C          2.8774907820       -4.0106361752       -1.7745289111
 C          3.5042476171       -2.8838858500       -1.2955418778
 C          2.7604663294       -1.8024880597       -0.8156721243
 C          3.4520271679       -0.6388525026       -0.3035411880
 N          4.7707794490       -0.6203909224       -0.3176811399
 C          5.3914772053        0.4610245020        0.1751550181
 C          6.8013083989        0.5231977132        0.1792317470
 C          7.4305319973        1.6217648126        0.6903878221
 C          6.6909824319        2.6988833513        1.2160143540
 C          5.3260558447        2.6737362936        1.2246924524
 C          4.6417915549        1.5550792436        0.7025554708
 N          3.3016345661        1.5299139988        0.7034319077
 C          2.7018147903        0.4618399623        0.2115574844
 H         -5.7397529741        3.8821063166       -2.5805816225
 H         -3.2657126091        3.9157778684       -2.6945699759
 H         -1.9534698994        2.2752597740       -1.4417742505
 H         -6.8671105010        2.1404046979       -1.2123441291
 H         -6.8245155488       -1.5151193164        1.5166840230
 H         -5.6587745600       -3.2364405897        2.8788820212
 H         -3.1842945711       -3.2122089467        2.9952233790
 H         -1.9099661580       -1.5395104788        1.7497171726
 H         -1.4059411458        2.3276667588        1.0759116044
 H          1.0823082540        2.3408996012        1.0777497369
 H         -1.3694758037       -1.5208660055       -0.7324324554
 H         -0.3317640184       -3.0951456601       -1.3226963520
 H          0.9876468130       -4.9534790013       -2.1455616856
 H          3.4565787572       -4.8437724532       -2.1433694273
 H          4.5795592242       -2.8038922309       -1.2727864703
 H          7.3492885318       -0.3129383437       -0.2267108078
 H          8.5093304960        1.6745084444        0.6968534794
 H          7.2197866339        3.5522230533        1.6144921608
 H          4.7412059504        3.4891899301        1.6211682053
  55
        -91.10107677
 C         -5.1200268638        2.3402897667       -2.6951091867
 C         -3.7418237413        2.3979065068       -2.7041264562
 C         -3.0066819699        1.7343343185       -1.7323666069
 C         -3.6460490923        1.0051190857       -0.7393235316
 C         -5.0468863167        0.9532574250       -0.7351569145
 C         -5.7723066369        1.6152071212       -1.7061253309
 O         -5.7536489587        0.2554651733        0.2159469139
 C         -5.0334285554       -0.4060913425        1.1826263787
 C         -5.7451878484       -1.1088558807        2.1348179554
 C         -5.0787397789       -1.8008814581        3.1379820330
 C         -3.7000876284       -1.7846563971        3.1798770835
 C         -2.9786006343       -1.0807775436        2.2263564213
 C         -3.6322718940       -0.3839721683        1.2195511833
 N         -2.9377757237        0.3294760163        0.2485025177
 C         -1.5182108562        0.3540554277        0.2568383947
 C         -0.8438491901        1.3341187720        0.9844591624
 C          0.5302960417        1.3400778735        0.9825460089
 C          1.2514855859        0.3810760635        0.2653836323
 C          0.5803973052       -0.6128269102       -0.4741294316
 C         -0.8179238567       -0.5983510787       -0.4576189432
 C          1.3407248583       -1.6085623746       -1.2164891738
 C          0.7270381359       -2.6103304785       -1.9773372863
 C          1.4690702059       -3.5435848914       -2.6680358121
 C          2.8582863361       -3.5118592875       -2.6244765998
 C          3.4890917671       -2.5374942641       -1.8865692594
 C          2.7487897661       -1.5841027664       -1.1824724247
 C          3.4436355278       -0.5685432180       -0.4211939183
 N          4.7628695191       -0.5720171749       -0.4037223102
 C          5.3868226478        0.3829307402        0.2996566136
 C          6.7971398437        0.4152929562        0.3472645338
 C          7.4293040055        1.3946273597        1.0577961724
 C          6.6929764945        2.3779749453        1.7468903483
 C          5.3280019508        2.3751669402        1.7251021223
 C          4.6405956428        1.3760809580        1.0029272011
 N          3.3004330245        1.3655307084        0.9842988521
 C          2.6976838085        0.4170752506        0.2930978338
 H         -5.6962901908        2.8538635001       -3.4483761903
 H         -3.2234132128        2.9589332650       -3.4664878079
 H         -1.9285726478        1.7821875431       -1.7419496941
 H         -6.8483885782        1.5540902172       -1.6737553658
 H         -6.8218912263       -1.1051012030        2.0770512364
 H         -5.6445047624       -2.3466460412        3.8763935923
 H         -3.1705654792       -2.3186326586        3.9539441947
 H         -1.9000782854       -1.0705980674        2.2621424350
 H         -1.4069949982        2.0705454702        1.5373895719
 H          1.0880432624        2.0812611175        1.5325782270
 H         -1.3871294227       -1.3340425344       -1.0028948041
 H         -0.3480071357       -2.6666452440       -2.0357085492
 H          0.9650671280       -4.3039425487       -3.2464037528
 H          3.4345294705       -4.2462749730       -3.1666842923
 H          4.5646862326       -2.4804118661       -1.8309519456
 H          7.3425782418       -0.3462142353       -0.1881762998
 H          8.5082438261        1.4244120621        1.0978529082
 H          7.2245548223        3.1400934791        2.2974609515
 H          4.7456039688        3.1184384428        2.2471238426
