  75
       -117.16832148
 N          0.0147714965        1.2997575868       -0.7165074621
 C          0.0067781243        0.1837444892       -0.4409892253
 C         -0.0000263795       -1.2025777266       -0.2052889519
 C          1.2035041712       -1.9415976729       -0.1549080580
 C          2.5195540969       -1.3216221477       -0.0813084805
 C          2.7397369030       -0.1052369656        0.5674761777
 C          4.0009596148        0.4420481095        0.6241747559
 C          5.0883009725       -0.2025685497        0.0250176530
 N          6.3563858837        0.3590309345        0.0659075510
 C          7.4963292432       -0.4600869600        0.0940416358
 C          7.5176885614       -1.6164897373        0.8719680667
 C          8.6454155025       -2.4140075581        0.8985497545
 C          9.7659018452       -2.0691519318        0.1604540626
 C          9.7508884810       -0.9173475467       -0.6088126404
 C          8.6254632760       -0.1168151835       -0.6472512723
 C          6.5230177493        1.7525600990        0.0802929748
 C          5.7017870458        2.5741799258       -0.6904044143
 C          5.8773405743        3.9442782848       -0.6715535547
 C          6.8751378781        4.5135534247        0.1027883704
 C          7.6981699692        3.7000941179        0.8639141355
 C          7.5248418970        2.3293617295        0.8589337291
 C          4.8709366255       -1.4317831923       -0.6082297091
 C          3.6126056905       -1.9831327776       -0.6480780251
 N          1.1750051369       -3.2745920901       -0.1906593537
 C         -0.0020154847       -3.8601971497       -0.2437313201
 N         -1.1778306403       -3.2722920351       -0.1919606955
 C         -1.2052800782       -1.9390111507       -0.1578054134
 C         -2.5214420044       -1.3189769339       -0.0884638566
 C         -2.7395378574       -0.0882117817        0.5334387042
 C         -4.0013440568        0.4581338056        0.5856842456
 C         -5.0921845455       -0.2039232401        0.0128196481
 N         -6.3609416427        0.3570447912        0.0527002499
 C         -6.5248916584        1.7506624127        0.0182312397
 C         -7.5075367486        2.3603180309        0.7963840538
 C         -7.6769667772        3.7307579300        0.7523884019
 C         -6.8691186505        4.5113183863       -0.0580907872
 C         -5.8899788148        3.9093971296       -0.8314029020
 C         -5.7180931859        2.5389524940       -0.8007560626
 C         -7.4989397676       -0.4603897684        0.1311154096
 C         -8.6481914157       -0.1355492870       -0.5873877429
 C         -9.7720659688       -0.9340213570       -0.4973497904
 C         -9.7659292246       -2.0661517468        0.3007689775
 C         -8.6251728396       -2.3933900989        1.0153960478
 C         -7.4989272212       -1.5972023033        0.9379879344
 C         -4.8774789092       -1.4473985667       -0.5926785783
 C         -3.6177747955       -1.9954773421       -0.6316530595
 H          1.9266040480        0.4002359507        1.0657538801
 H          4.1584663229        1.3734120515        1.1470925202
 H          6.6478464610       -1.8805511347        1.4555294055
 H          8.6512956782       -3.3069102334        1.5059303986
 H         10.6457403522       -2.6938194959        0.1855964312
 H         10.6189221785       -0.6434303104       -1.1900446122
 H          8.6114992361        0.7776930046       -1.2526282869
 H          4.9302897330        2.1321612393       -1.3035111592
 H          5.2348419872        4.5702530817       -1.2726457962
 H          7.0108498873        5.5842859869        0.1122964499
 H          8.4765925801        4.1353829879        1.4730590440
 H          8.1623879952        1.6968870785        1.4593119701
 H          5.6994432724       -1.9416168225       -1.0769805375
 H          3.4449997867       -2.9283782687       -1.1403649834
 H         -0.0029106698       -4.9411407521       -0.3144700626
 H         -1.9246152554        0.4307328666        1.0143904366
 H         -4.1569939730        1.4024679295        1.0854267243
 H         -8.1326013114        1.7529639338        1.4346528781
 H         -8.4400280495        4.1923161833        1.3616012445
 H         -7.0021046091        5.5820547181       -0.0871982296
 H         -5.2592512606        4.5095699822       -1.4700615785
 H         -4.9605850401        2.0709431429       -1.4120753004
 H         -8.6513858017        0.7434347322       -1.2151924523
 H        -10.6561557081       -0.6737782228       -1.0603900582
 H        -10.6450210945       -2.6889273035        0.3665751084
 H         -8.6142801449       -3.2704174649        1.6454709143
 H         -6.6138063748       -1.8466533759        1.5046569412
 H         -5.7093471529       -1.9707022959       -1.0402164804
 H         -3.4516486880       -2.9523101367       -1.1014138338
