75
 energy: -117.093617876897 gnorm: 0.000047398852 xtb: 6.7.1 (edcfbbe)
N            0.31341654099863        1.15502949626789       -1.02030383303266
C            0.16715266900856        0.16016858507261       -0.45320470521198
C            0.05206822950946       -1.08250418625837        0.17356605324227
C            1.21056440373134       -1.80608335174278        0.46080849322166
C            2.54631076633456       -1.21971282379106        0.33764591315610
C            2.81547827282796        0.09690909336716        0.71169438910110
C            4.08222394725109        0.61883378152799        0.57507140674794
C            5.12028693389976       -0.15938699829639        0.05623837854005
N            6.39541730190811        0.38041097768572       -0.10764103018289
C            7.52794557479970       -0.41853047851308        0.08655832432964
C            7.55558203678891       -1.36841224809832        1.10816350343265
C            8.67547799469581       -2.15466715995421        1.29496426278272
C            9.78313292200497       -2.00462170349298        0.47606155758708
C            9.76176456661525       -1.06019264258643       -0.53761763772862
C            8.64469895609898       -0.27291953146788       -0.73691642976910
C            6.54717843041589        1.72233701073445       -0.47768716835109
C            5.65676424679870        2.31524969688025       -1.37337453047883
C            5.81308474271547        3.63970675264655       -1.73203907277169
C            6.85686738018765        4.38939301175748       -1.21375562542413
C            7.74549920401944        3.80377843598564       -0.32655081482827
C            7.59431454433669        2.48202383151255        0.04453225534882
C            4.85875214883083       -1.48827746839487       -0.28947833556917
C            3.59443771544953       -2.00984352529123       -0.13849881701830
N            1.16943424280523       -3.09026591213537        0.83564466970066
C           -0.02734998958936       -3.68361865791506        0.91024203388850
N           -1.14867721120842       -3.07326224979331        0.74435719557448
C           -1.21738756754913       -1.75525297333828        0.41115784370889
C           -2.50747866014146       -1.18311971807624        0.29880776864036
C           -2.76061878291121        0.19585289765732        0.09997704294874
C           -4.03905050871447        0.67778621498369        0.01023860635729
C           -5.14359454118225       -0.18145495602760        0.10866478872304
N           -6.44807099086350        0.31433237464517        0.00639938981773
C           -7.40540347209099       -0.41695525189601       -0.69218224962234
C           -7.03880600006395       -1.16502960952167       -1.81478480597895
C           -7.98473517070075       -1.90298882652112       -2.49637372277275
C           -9.30639174629836       -1.91092671752472       -2.07715586663266
C           -9.67570536148702       -1.17299978903936       -0.96280491460643
C           -8.73857480883868       -0.43282261457303       -0.27133209460862
C           -6.77344320971653        1.52966995651988        0.60384058906325
C           -7.69206431831487        2.39560220774618        0.00336896833835
C           -7.99869490811296        3.60271996206063        0.59765509298309
C           -7.39762122172891        3.97161957475113        1.79141000346007
C           -6.48161890605811        3.11923417588950        2.38884752060657
C           -6.16867200059271        1.90846545812221        1.80568648616269
C           -4.91296430807325       -1.55216066927102        0.31958791239838
C           -3.64013337293462       -2.03499154530363        0.41321618364599
H            2.03584325499191        0.70923394960591        1.13780999143269
H            4.28168067244616        1.63546121675002        0.87941240208650
H            6.69738063381706       -1.47783015149001        1.75466444672251
H            8.68625403266906       -2.88409240390163        2.09116266238616
H           10.65717948164486       -2.61953646411144        0.62683384634656
H           10.61858692056489       -0.94108405313174       -1.18407523601625
H            8.62472689913698        0.45478857216318       -1.53482577494566
H            4.84817632628519        1.73115739007568       -1.78692438601338
H            5.11812791651225        4.08646838189034       -2.42700559054490
H            6.97674560912173        5.42344399663031       -1.49872024743043
H            8.55802001584226        4.38257105933466        0.08717766241746
H            8.28039008291714        2.03041595807789        0.74612149357076
H            5.65340181245864       -2.10032672096394       -0.69004348638671
H            3.39152791185086       -3.03381507193983       -0.41213738583086
H           -0.03997638890713       -4.73751792963021        1.14972607980100
H           -1.93864697598496        0.88608176383578        0.01517843631296
H           -4.20711522827665        1.73185417806450       -0.15865997094040
H           -6.01239869322939       -1.14712647807396       -2.14930212192977
H           -7.69037190108361       -2.47100052716822       -3.36618980508127
H          -10.04299106696833       -2.48907448832509       -2.61356871833540
H          -10.70117574740794       -1.18214343866909       -0.62434180606242
H           -9.02465448142774        0.12498824650143        0.60826005834383
H           -8.14593774160631        2.11945470361505       -0.93703518930969
H           -8.70522335508204        4.26580102935380        0.12087490109005
H           -7.63965953573981        4.91739770834058        2.25127001342581
H           -6.01255436929215        3.39767804227076        3.32070005042060
H           -5.46537675421095        1.23855457857235        2.27733519734944
H           -5.75928692871720       -2.21571024721283        0.42860982154266
H           -3.46104783074639       -3.08430176915227        0.59083694490437
