99
 energy: -158.084745584674 gnorm: 0.000165962116 xtb: 6.7.1 (edcfbbe)
C           -1.05174191424275        4.29871420975709        1.68473068307430
C           -2.42712416655238        4.48377371147250        1.60304030555051
C           -3.22063283330986        3.48835764494306        1.05977289542067
C           -2.66125235435717        2.30105975065985        0.60548927360762
N           -3.49994810817359        1.34292700098195        0.01495554245784
C           -3.38760230638794        0.84913241177593       -1.26592218227786
C           -2.44085779143778        1.12963347891853       -2.24143994601183
C           -2.56539838864363        0.49041785846889       -3.46096179336294
C           -3.61313110867335       -0.39088560239588       -3.71909778111683
C           -4.57513190358441       -0.65233900326548       -2.76114909677845
C           -4.46687932173029       -0.03005294428409       -1.52527099305756
C           -5.26288184280785       -0.06092093073055       -0.32672844527294
C           -6.42263624534139       -0.73033090958333        0.03734744568041
C           -6.92488696193006       -0.53847652810203        1.31143927716414
C           -6.27950768887125        0.29860258367355        2.21991019726623
C           -5.12391188258110        0.97630693236910        1.88013363893652
C           -4.62481653877509        0.80219453131020        0.59572309748922
C           -1.27103541391916        2.09674044440220        0.70278972384514
C           -0.63309577681581        0.86354301372546        0.29686162764397
N           -1.33342908677603       -0.30868435224602        0.34718531975708
C           -0.63845819204994       -1.38940735793018        0.01292440606991
C           -1.31636044808565       -2.68855726007406        0.18243953865342
C           -2.67519827004231       -2.80192894116783       -0.08314901914019
C           -3.31645298999656       -4.02235163767912        0.02218494705805
C           -2.60402861140202       -5.14510896644623        0.41332905113605
C           -1.25833014782648       -5.04066656022685        0.71625683041282
C           -0.60385356375427       -3.81772515258586        0.60731226680693
N            0.75309749322561       -3.73272574247088        0.95215193365914
C            1.30311828488472       -2.85334739913406        1.86194654147223
C            0.67475466992243       -1.93428272296781        2.68994071287588
C            1.46997762376793       -1.15993823472205        3.51442741387529
C            2.85503818375797       -1.30676632883928        3.53368719253428
C            3.48221048299359       -2.24830420856801        2.73893704982268
C            2.70471078567918       -3.03347293230259        1.89984358981461
C            3.00515767689584       -4.08451236994244        0.96493365531482
C            4.18186884269941       -4.69865605111725        0.56039681929813
C            4.11453289575906       -5.68959457605492       -0.40171062797287
C            2.89642493117877       -6.05842513410945       -0.96909416214440
C            1.71085837814546       -5.46175220648536       -0.58210273472576
C            1.77012934702599       -4.48231094792877        0.40028414059313
N            0.59045780782151       -1.40297987530459       -0.43985369731453
C            1.24827691272702       -0.19549888116804       -0.46639347202450
C            2.60483009364375       -0.17154720555725       -0.89701431413133
C            3.26947055444668       -1.37708320960795       -1.19739981206462
C            4.60577851603767       -1.39981755804742       -1.51120611934842
C            5.34071276970782       -0.21682631084385       -1.54369759734724
C            4.70314556991384        0.98782801979539       -1.29082025845162
C            3.35262269814719        1.02915486224456       -0.98842300163392
N            2.74454570409520        2.28286307449356       -0.79103395261317
C            1.82607156467746        2.87413337565531       -1.63205836777223
C            1.23519988608092        2.36747328740468       -2.77967915805029
C            0.34630605082667        3.18210696731254       -3.45776291520632
C            0.05200006446699        4.46755664586240       -3.00930258443067
C            0.65327635573053        4.98293337662355       -1.87496212573293
C            1.55247517018843        4.18675006827017       -1.18158767075204
C            2.36552901073557        4.39064975300478       -0.01135203748236
C            2.54672458580264        5.45231533666307        0.86229061536020
C            3.42682742092250        5.29735356993721        1.91920971969125
C            4.11721837647869        4.10156403121291        2.11444204921683
C            3.95786991922014        3.03059831102883        1.25594639406784
C            3.08449248465610        3.18509754276744        0.18575401549232
N            0.63200653195456        0.90924324097509       -0.05592295461351
C           -0.48667438369860        3.12471208834246        1.24101578781413
H           -0.42357008627546        5.07013576724731        2.10332058627383
H           -2.87708997873820        5.40082415428259        1.95059402183374
H           -4.28724565682731        3.63312123096479        0.96319199825346
H           -1.62881013073997        1.81788205716713       -2.05467573365961
H           -1.83399344106783        0.67959255194564       -4.23289000072199
H           -3.67423672087920       -0.86918606979881       -4.68533900546149
H           -5.39215122021101       -1.32734632592009       -2.96649556071529
H           -6.91859502196943       -1.38741745974845       -0.66096510185936
H           -7.82746419019410       -1.04835668360860        1.61339495442111
H           -6.69019509761607        0.41886714854167        3.21139298642248
H           -4.62023313077861        1.61498238642376        2.58999715208109
H           -3.21249330662048       -1.91942885727481       -0.39202291891195
H           -4.36922916222641       -4.09730464319901       -0.20129921847212
H           -3.09831986661911       -6.10090230310027        0.49836508122644
H           -0.70440968697102       -5.90307645477167        1.05718852044662
H           -0.39988970131005       -1.81698679221587        2.68547371538377
H            1.00514092215089       -0.42524755750217        4.15631764798426
H            3.44186187022250       -0.67839225124495        4.18721098049356
H            4.55440725384714       -2.37026735007508        2.76587434852968
H            5.12788906848612       -4.40234191358701        0.98716531090263
H            5.01878043314056       -6.18134675850836       -0.72799800505925
H            2.87771152958136       -6.82511415717790       -1.72936073173851
H            0.77189277075425       -5.74077687390649       -1.03591652954714
H            2.69423827525454       -2.28876839054757       -1.15375650302523
H            5.08890517046132       -2.34066319591010       -1.72888355048150
H            6.39281625959163       -0.23093921645146       -1.78150142171085
H            5.25221564627559        1.91766120710476       -1.34693294936439
H            1.46045266870012        1.36893808179798       -3.12591693763598
H           -0.12917407317606        2.81599394840738       -4.35590887115982
H           -0.65303303109093        5.06948595056121       -3.56312205461997
H            0.43012770145412        5.98337910099828       -1.53726049398932
H            2.01007560220884        6.37769345075373        0.71895066226315
H            3.58093196093304        6.11247782300505        2.61035275213143
H            4.79048289948752        4.01128138729866        2.95384974340406
H            4.48641504235998        2.10119535912163        1.40752858895249
H            0.57612236301538        2.95903427120189        1.32416296004256
