99
 energy: -158.084756570127 gnorm: 0.000059257543 xtb: 6.7.1 (edcfbbe)
C           -0.80428116600775        4.10845796424108        2.00790469732962
C           -2.17638479472355        4.33531042778005        2.02933380848908
C           -3.02991583846131        3.42426025787142        1.43095280551951
C           -2.53392707524180        2.28013934618344        0.82103455315218
N           -3.43175937938683        1.41078232542495        0.18178068773208
C           -3.40683363155925        1.06284304402454       -1.15050549800427
C           -2.51010615304104        1.43267294936900       -2.14345173798303
C           -2.72237322103073        0.93941438870165       -3.41753077865629
C           -3.80741973245784        0.11578300204541       -3.70942132174350
C           -4.71935866701327       -0.23351605356628       -2.73022882832824
C           -4.52266803235026        0.24083376328956       -1.44074693472302
C           -5.24744722046042        0.08920931674670       -0.20675504692623
C           -6.40137592231705       -0.59326903624501        0.15057343349754
C           -6.82217964275234       -0.53782346647017        1.46696271690552
C           -6.10182200929197        0.17663750190776        2.42259953691182
C           -4.95049582449101        0.86532442939854        2.09037239812497
C           -4.53323105283316        0.82896029175518        0.76597374062953
C           -1.14637415254287        2.02905012311383        0.81512305509756
C           -0.57950809558584        0.82313690900616        0.26442349925944
N           -1.33680992695136       -0.31714855558045        0.21216073018615
C           -0.69848959077063       -1.39397252980840       -0.21233814719655
C           -1.42384677230072       -2.67711786588635       -0.10370512331841
C           -2.75827358755603       -2.76715407774936       -0.47295700157584
C           -3.42746577634561       -3.97603178339037       -0.40175508500922
C           -2.76817066854309       -5.10514897530446        0.05716210758717
C           -1.44694430023987       -5.02238911075495        0.45918672307485
C           -0.76479429760151       -3.81262657197696        0.38390048154930
N            0.56807426412102       -3.73799423613453        0.81667881717806
C            1.07108214712388       -2.82169997392362        1.71712696245004
C            0.39580941550313       -1.90171918635950        2.50685674639524
C            1.14811353444689       -1.08284875699521        3.32838356615104
C            2.53595189962216       -1.18864698522437        3.38474679231131
C            3.20890245794754       -2.13408280690023        2.63331918548681
C            2.47529599961895       -2.96301887604124        1.79657030038358
C            2.82753823218645       -4.02993926257484        0.89884936527305
C            4.03041800722150       -4.62410930360807        0.54417418163471
C            4.01525911837411       -5.64273337452822       -0.39050306063828
C            2.82343698573430       -6.05801883081426       -0.98077331555957
C            1.61288150067018       -5.48068981201712       -0.64455588270471
C            1.61981024250849       -4.47372955818386        0.31073846982299
N            0.52314577484424       -1.43430566395789       -0.68853784889596
C            1.23720278371795       -0.25877439757713       -0.61449461605631
C            2.59680519078328       -0.26994607687806       -1.04468248947296
C            3.20508157518877       -1.48405931929533       -1.41629087681019
C            4.54017010812253       -1.54861683422446       -1.73201158867624
C            5.32689149294016       -0.40011509221940       -1.69471650592881
C            4.74473371362407        0.81496666468569       -1.36905805407831
C            3.39675665420192        0.89875175562602       -1.06205130013640
N            2.84488009127270        2.16263249052385       -0.78541880174603
C            1.93569630794921        2.83667157192579       -1.57325135103192
C            1.30427390099674        2.42072882329496       -2.73566388093629
C            0.43757076914439        3.30780108643304       -3.34830121212158
C            0.20426450338106        4.57629250817441       -2.82253570975717
C            0.84552191150142        5.00100926311346       -1.67260590936823
C            1.72323143523267        4.13083126545502       -1.04349067884985
C            2.56366107431510        4.23498566435770        0.12055079648810
C            2.80203649714445        5.23696141093121        1.04921519804448
C            3.69411054918618        4.98786673442303        2.07768315440980
C            4.34011918243788        3.75721349856417        2.19081208818162
C            4.12301879156526        2.74418951819167        1.27647814809479
C            3.23769939362250        2.99348302659479        0.23438595600102
N            0.68454667837430        0.83155532855786       -0.10375682002778
C           -0.30119498616536        2.97574172445900        1.41056109417645
H           -0.13031688503415        4.81510419791132        2.46789244099600
H           -2.57717999726423        5.21982530591573        2.49969531267922
H           -4.09535038050634        3.60483655309958        1.41383695741633
H           -1.66888587986383        2.07629212952977       -1.92892989579233
H           -2.03245794077457        1.20119664324232       -4.20605546889504
H           -3.93761368200085       -0.24795830962670       -4.71781339591691
H           -5.56520952182046       -0.86339693340398       -2.96092341817473
H           -6.95592310301081       -1.15637081036426       -0.58475416267885
H           -7.71904545562797       -1.06030691125747        1.76435254725616
H           -6.44966677464574        0.19090647059151        3.44488889095429
H           -4.38842101585907        1.40894251075211        2.83478688551700
H           -3.25562783319498       -1.87988678493479       -0.83231601984295
H           -4.46115128862094       -4.03630725692377       -0.70496859294993
H           -3.28616122600680       -6.05027899579081        0.11649057553942
H           -0.93631274866158       -5.89024980413807        0.85001504253636
H           -0.68132662991183       -1.81729245998429        2.47568099882828
H            0.64691445220990       -0.34462232469978        3.93819918174178
H            3.08812220225517       -0.52521809585815        4.03388048719975
H            4.28302820586385       -2.22577989833473        2.69102324128291
H            4.95621800575409       -4.29147725688868        0.98830459270234
H            4.94030991292237       -6.12040093845409       -0.67701737886627
H            2.84539658925203       -6.84690660752669       -1.71793116045639
H            0.69461127771449       -5.79625506373205       -1.11630186761626
H            2.58921838511850       -2.36995563366403       -1.42319017321178
H            4.98113489065280       -2.49589373421132       -2.00404912942674
H            6.37759675079701       -0.44759838635052       -1.93449485493372
H            5.33548490202840        1.72052894414304       -1.37066443889312
H            1.48148317260130        1.43570416212854       -3.14300574762499
H           -0.06766251378529        3.01257546767894       -4.25616779335672
H           -0.48502277775209        5.23661986857326       -3.32745252938512
H            0.66912006318341        5.98820148349544       -1.27372616779386
H            2.29948596092508        6.18874208131462        0.96951601038316
H            3.89284522947878        5.75587737432433        2.81022321273628
H            5.02443484158910        3.59313885380108        3.00986207269561
H            4.61750380305113        1.78831964640371        1.36412585051162
H            0.75862175268223        2.77395442990001        1.41436989144811
