99
 energy: -158.158404504396 gnorm: 0.000041287034 xtb: 6.7.1 (edcfbbe)
C           -1.56178921780604        1.26308534055610        3.50728689929425
C           -0.67330069376391        2.29869674541667        3.75380963841289
C            0.30203116950272        2.61026240451457        2.82547327360031
C            0.42270943859319        1.88357642796654        1.64253887269093
N            1.43056449550563        2.23982355290798        0.73663257285876
C            2.77214974109819        2.36428359760894        1.05463725589172
C            3.41292141555411        2.20963105321565        2.27530933731927
C            4.77780898263913        2.42004099654285        2.32023303156324
C            5.50103311282684        2.75709716194580        1.17835265661297
C            4.87573700589642        2.87397937547805       -0.04662158136657
C            3.50210594435071        2.67816834563721       -0.11356576318188
C            2.54925382256583        2.74277679186223       -1.18604950305166
C            2.65769098052438        3.01476396752576       -2.54342319643796
C            1.50908123145433        3.03382786967149       -3.30910309700182
C            0.26170313070608        2.81180694982090       -2.72958717203086
C            0.12937246663369        2.54232047115344       -1.38102572514385
C            1.28407602785153        2.47600074895181       -0.61444185949601
C           -0.47963660179203        0.83991817314389        1.38986886029320
C           -0.44909603453282        0.04539235494735        0.15959212369323
N           -1.61859053836304       -0.41564402406914       -0.27355629816131
C           -1.61398164223754       -0.97736028308972       -1.47311978148499
C           -2.86006915821808       -1.53818052653354       -2.00473746624799
C           -2.77577702889117       -2.44166173844613       -3.06570704416733
C           -3.89570332305119       -3.09160124617723       -3.54381239209753
C           -5.13173424253506       -2.85135438927135       -2.96180546344085
C           -5.24061695866969       -1.93964055010994       -1.92856387692725
C           -4.11969968688273       -1.26759476941193       -1.44814617101700
N           -4.30047334071400       -0.31624205885480       -0.43423606231897
C           -3.99619530206438        1.02420026564861       -0.52039709549635
C           -3.51230522188951        1.74807568515232       -1.59979354872087
C           -3.33987701370206        3.11026036687741       -1.43757422404627
C           -3.63765004632445        3.74181501780366       -0.23140219313471
C           -4.13590403812169        3.02791131023918        0.84056791264136
C           -4.32694191559599        1.65983804168245        0.69862309306601
C           -4.84789540844851        0.63655106844238        1.56194309900427
C           -5.32646805105221        0.63340506420930        2.86603719223451
C           -5.75280479335853       -0.56165514962781        3.41198149222486
C           -5.69879962028854       -1.74573396845171        2.67877882508248
C           -5.22909739469153       -1.76795869859279        1.37875740774259
C           -4.81506939386754       -0.56708746368276        0.82065513678573
N           -0.52008777361908       -1.10958834471186       -2.22550004081027
C            0.61751418746879       -0.77443330908796       -1.63065634498403
C            1.86469433065843       -1.03147770955125       -2.36403361905464
C            1.94252600828525       -0.68887021570135       -3.70837728845499
C            3.12381900225247       -0.85075753324782       -4.40832735003396
C            4.23509005197243       -1.37860504897674       -3.76973949805911
C            4.15995200826679       -1.76081578957012       -2.44247246688948
C            2.97931261707331       -1.58949241296779       -1.72653537984613
N            2.89648444999500       -2.01747954775641       -0.39507253954878
C            3.73550177168708       -1.63626918201841        0.63631852701553
C            4.88102782672733       -0.85551801141667        0.60350960158082
C            5.55689008065112       -0.65208336113590        1.79133775089165
C            5.09802738610130       -1.18900334893069        2.99187558622669
C            3.93913234180649       -1.93768461793584        3.03690031902044
C            3.25028092766510       -2.16784771698689        1.85264702506479
C            2.05674736107906       -2.90085843980577        1.53290012179830
C            1.15344566816307       -3.63700285723724        2.28879273788477
C            0.10623838853090       -4.26586357099272        1.64428636448009
C           -0.02758513991067       -4.19419834140582        0.25916612594146
C            0.85994352676947       -3.46913287764468       -0.51375953238101
C            1.88308690900129       -2.79039427836425        0.13421090467497
N            0.70680738634739       -0.18788869705601       -0.44585405487588
C           -1.46972157878893        0.55299252653371        2.32759370259784
H           -2.32839440674501        1.01606800656782        4.22473342898591
H           -0.74632967387008        2.87313465376014        4.66483227670029
H            0.97553560205746        3.43605282491942        3.00022404223271
H            2.86808588564445        1.92837961897053        3.16328047259872
H            5.29389549146572        2.32014707174262        3.26318409708592
H            6.56569717488689        2.92049307919944        1.25487049354355
H            5.43615433795326        3.11782092859956       -0.93671760746818
H            3.62197974836724        3.20911341248229       -2.98791356370395
H            1.57037475156225        3.23515057761599       -4.36837350334233
H           -0.62436189068494        2.85218953706033       -3.34731224929662
H           -0.84688818399603        2.38388587054610       -0.94313937090967
H           -1.80219099656458       -2.62912771751851       -3.49263853410926
H           -3.80597349212058       -3.78975635768422       -4.36175465220895
H           -6.01154480612404       -3.36256668333289       -3.32164413967034
H           -6.20273017890629       -1.72463228085788       -1.48693388503325
H           -3.27610549781399        1.26236068186374       -2.53707349408807
H           -2.96553984786076        3.70002849577606       -2.26198556065187
H           -3.48075431835524        4.80669496262381       -0.14382120732916
H           -4.37802096377516        3.52192783068872        1.76926968689511
H           -5.36000606454881        1.54880300456773        3.43716853937570
H           -6.13084778305257       -0.58510041237880        4.42326546168426
H           -6.02987069340515       -2.66658360733058        3.13603527686254
H           -5.18135999302393       -2.68973227325053        0.81779973297780
H            1.06757903653759       -0.27348647484333       -4.18569473144811
H            3.17713421707616       -0.56727815729027       -5.44808332389241
H            5.15901646232568       -1.51118455562036       -4.31181020363147
H            5.01064595108755       -2.21170760725696       -1.95401513210030
H            5.23336440770840       -0.41400230047219       -0.31553844642100
H            6.46125091437464       -0.06357169627250        1.78656103201491
H            5.65635813845055       -1.01055443189295        3.89862642852400
H            3.57405194008814       -2.34335212240120        3.96848814024711
H            1.27263907679088       -3.71771027911004        3.35869925219935
H           -0.61174260397813       -4.83681697982570        2.21415025948970
H           -0.83904615404891       -4.72069922954944       -0.22336651609126
H            0.75780078936815       -3.43802349152745       -1.58939185788189
H           -2.15774741402652       -0.24988849511179        2.11239953957747
