  53
        -79.29550086
 C          1.7527929698        4.0902994629       -0.4234592849
 C          1.6415611692        3.6591162251        0.8919039787
 C          1.5523698674        2.3138034829        1.1743912031
 C          1.5999507889        1.3730505052        0.1385531434
 P          1.2988662257       -0.3708898933        0.5176244747
 C          2.9593740557       -1.0827958652        0.8078551943
 C          3.1037295519       -2.4678757509        0.7384938708
 C          4.3238326310       -3.0493362479        1.0168985190
 C          5.3966878687       -2.2587763208        1.4061876392
 C          5.2440848572       -0.8849636122        1.5143677801
 C          4.0270651523       -0.2944642810        1.2326176387
 C          0.7144195047       -1.1902167479       -0.9586322621
 C          1.2596853642       -1.6877192238       -2.1080111642
 S          0.0067163108       -2.1689532994       -3.2324380996
 C         -1.2497952264       -1.6874952189       -2.1120362650
 C         -0.7081908046       -1.1900111243       -0.9609287651
 P         -1.2975326485       -0.3732792467        0.5147533034
 C         -1.6040416905        1.3699699236        0.1360789041
 C         -1.6866251077        1.8129395084       -1.1875154795
 C         -1.7766918315        3.1614051754       -1.4553132408
 C         -1.7704801762        4.0877192526       -0.4197349420
 C         -1.6751167386        3.6533124687        0.8956803728
 C         -1.5789702892        2.3077300290        1.1752838079
 C         -2.9564196367       -1.0898230300        0.8034726733
 C         -4.0239068278       -0.3066987559        1.2378097317
 C         -5.2391477276       -0.9013763872        1.5184643714
 C         -5.3904408617       -2.2742837255        1.3985885232
 C         -4.3178322869       -3.0599051985        0.9994660013
 C         -3.0992039419       -2.4745121478        0.7229588414
 C          1.6997529450        1.8125263951       -1.1851201012
 C          1.7827768841        3.1608931490       -1.4558002247
 H          1.8132175340        5.1450642475       -0.6440512120
 H          1.6176373039        4.3813064962        1.6951395793
 H          1.4569667696        1.9685300491        2.1953368293
 H          2.2568808790       -3.0726709717        0.4424137030
 H          4.4422247892       -4.1201789516        0.9379418586
 H          6.3483428847       -2.7155615646        1.6334141053
 H          6.0787068246       -0.2717175975        1.8219721650
 H          3.9043737893        0.7770152877        1.3062994045
 H          2.2867314651       -1.8290063745       -2.3772800090
 H         -2.2759884138       -1.8284725743       -2.3846523558
 H         -1.6872224914        1.0903170239       -1.9915045197
 H         -1.8504685152        3.4996456805       -2.4789147814
 H         -1.8375226227        5.1425745885       -0.6380073431
 H         -1.6707014056        4.3728521974        1.7016403012
 H         -1.4964782613        1.9603215853        2.1966580137
 H         -3.9029093345        0.7643153834        1.3201233514
 H         -6.0733495366       -0.2918879784        1.8351358413
 H         -6.3407351162       -2.7343155205        1.6251034689
 H         -4.4351750388       -4.1300414071        0.9116661487
 H         -2.2526100556       -3.0758099380        0.4183233490
 H          1.7183221054        1.0873490474       -1.9865571447
 H          1.8688946009        3.4965082714       -2.4793205776
  53
        -79.29367276
 C          3.8717837536        4.0268976090       -0.8423025761
 C          4.1466939228        3.2655712532        0.2871301778
 C          3.3681971363        2.1685528084        0.5908151709
 C          2.3303048753        1.7941207337       -0.2658920958
 P          1.1968286598        0.4603116561        0.1769541129
 C          2.1660245268       -0.7698054425        1.0494318756
 C          3.4274575531       -1.1357366439        0.5456979902
 C          4.0846738845       -2.2213653791        1.0778197237
 C          3.5082106822       -2.9694581551        2.0986234576
 C          2.2474982096       -2.6264727140        2.5808408501
 C          1.5782068979       -1.5443012320        2.0588089739
 C          0.5936515782       -0.2176092062       -1.3836154299
 C          1.1274282300       -0.6105924701       -2.5866373340
 S          0.1036522766       -1.7879674152       -3.3674415204
 C         -1.0442928083       -1.7396038761       -2.0566856229
 C         -0.6434883978       -0.8760655767       -1.0933200646
 P         -1.1842679172       -0.3452708232        0.5490580846
 C         -1.9142165887        1.2715488303        0.1732249137
 C         -3.0121653686        1.3571716982       -0.6805927767
 C         -3.5160233568        2.5967847281       -1.0235747217
 C         -2.9304120287        3.7513368439       -0.5250045007
 C         -1.8369991242        3.6668960354        0.3240741053
 C         -1.3297050082        2.4296032994        0.6727083951
 C         -2.5819309370       -1.4191084001        0.9663404396
 C         -3.7177076175       -0.9279522482        1.6177454451
 C         -4.6994653903       -1.8001144848        2.0360929599
 C         -4.5452070436       -3.1704293689        1.8577345065
 C         -3.3918200134       -3.6660515883        1.2634888374
 C         -2.4046018307       -2.8026872494        0.8391452338
 C          2.0247070174        2.5917645793       -1.3719275075
 C          2.8068934964        3.6890647091       -1.6663439685
 H          4.4779985170        4.8906544061       -1.0704900906
 H          4.9680447603        3.5383676219        0.9336577280
 H          3.5684307996        1.5733794996        1.4717376522
 H          3.8675084851       -0.5560946225       -0.2544200980
 H          5.0570892660       -2.4966047022        0.6944891452
 H          4.0330974311       -3.8169903684        2.5117656036
 H          1.7960370953       -3.2110104639        3.3694665178
 H          0.5953758401       -1.2713889132        2.4274559661
 H          2.0220290945       -0.2889459358       -3.0786741266
 H         -1.9293740432       -2.3411667550       -2.1182697825
 H         -3.4552310775        0.4508451526       -1.0707172655
 H         -4.3646609204        2.6656453324       -1.6884564574
 H         -3.3253239133        4.7177135515       -0.8005034254
 H         -1.3807770102        4.5654045828        0.7124455108
 H         -0.4778508818        2.3510557424        1.3386270560
 H         -3.8309506976        0.1383168645        1.7610797310
 H         -5.5906016340       -1.4165477679        2.5115597204
 H         -5.3139414092       -3.8486604659        2.1955473674
 H         -3.2640453080       -4.7319473917        1.1404915442
 H         -1.4963447310       -3.1785570788        0.3872023600
 H          1.1864375657        2.3205915770       -1.9999174259
 H          2.5852878491        4.2913274894       -2.5355839021
  53
        -79.29358959
 C          3.6483307453        3.5576735754       -0.7167059395
 C          2.3761471551        3.6984587103       -0.1666744877
 C          1.6708904987        2.5896058577        0.2371101712
 C          2.2343884904        1.3115242346        0.1163807504
 P          1.2177847247       -0.1408245383        0.3692308747
 C          2.2840426128       -1.4316185141        1.0353805111
 C          1.9169973688       -2.7664509712        0.8392846335
 C          2.6304180885       -3.7739964114        1.4536544861
 C          3.6866641677       -3.4640975107        2.2998667201
 C          4.0234287346       -2.1365020630        2.5355077889
 C          3.3135360585       -1.1223391980        1.9285734505
 C          0.5675303670       -0.7715330977       -1.1940968049
 C          1.0697194661       -1.3330180580       -2.3427602011
 S          0.0027662436       -1.0481044303       -3.6944998555
 C         -1.1191928651       -0.1675428890       -2.6924812711
 C         -0.6801442800       -0.1041262110       -1.4135960511
 P         -1.1726217159        0.6781379429        0.1409135626
 C         -2.6530022071        1.6457256159       -0.2667944031
 C         -2.5712985618        2.5458112051       -1.3356022952
 C         -3.6285078942        3.3865399959       -1.6113449568
 C         -4.7588620275        3.3740969321       -0.8046584293
 C         -4.8197361340        2.5204219980        0.2903668371
 C         -3.7673557986        1.6767523396        0.5759551839
 C         -1.7935045794       -0.7566587471        1.0649095152
 C         -1.1809922329       -1.1240031057        2.2569773171
 C         -1.5937095761       -2.2613759180        2.9256343821
 C         -2.6183865763       -3.0353461667        2.4029252642
 C         -3.2330112830       -2.6686926065        1.2150465698
 C         -2.8247022834       -1.5322536722        0.5426799660
 C          3.5075482854        1.1706028926       -0.4662130084
 C          4.1997343489        2.2901960080       -0.8673997872
 H          4.2008785258        4.4295489409       -1.0309135637
 H          1.9445467811        4.6826306459       -0.0559913105
 H          0.6778475989        2.6879454576        0.6620645152
 H          1.0857269655       -2.9915346460        0.1844935816
 H          2.3601904943       -4.8060680818        1.2843875027
 H          4.2367428036       -4.2542606666        2.7882430314
 H          4.8380560757       -1.8982902450        3.2039103579
 H          3.5622028360       -0.0854017916        2.1103515537
 H          1.9625580317       -1.9034629649       -2.4952944487
 H         -2.0202572817        0.2126450909       -3.1312976003
 H         -1.6798093786        2.5572106750       -1.9486334610
 H         -3.5735331882        4.0622639001       -2.4526148229
 H         -5.5828898235        4.0377984678       -1.0181214251
 H         -5.6938504427        2.5211934183        0.9254043766
 H         -3.8086944391        1.0159842977        1.4312085108
 H         -0.3831924470       -0.5083309886        2.6565659584
 H         -1.1147804794       -2.5470429996        3.8504506917
 H         -2.9357761411       -3.9286739776        2.9198377173
 H         -4.0262823657       -3.2779658946        0.8068884770
 H         -3.2896092781       -1.2417820260       -0.3899612086
 H          3.9289422563        0.1819582695       -0.5876130037
 H          5.1820121393        2.1809128640       -1.3051737826
  53
        -79.29345406
 C          2.5413452724        3.7928998364       -0.4820288446
 C          1.5565268206        3.6047424849        0.4751025591
 C          1.1670547759        2.3233642779        0.8183508767
 C          1.7625240057        1.2271112388        0.2060929856
 P          1.1623678321       -0.4469275014        0.5837903196
 C          2.6699368053       -1.3921195789        0.9542383374
 C          2.6205459348       -2.7847692785        0.8297667023
 C          3.7060053473       -3.5492018713        1.2024359986
 C          4.8329525453       -2.9440777748        1.7428224508
 C          4.8625412965       -1.5662081089        1.9195818244
 C          3.7820635472       -0.7928246558        1.5506197168
 C          0.6579825750       -0.9993432049       -1.0627683523
 C          1.0888324641       -1.8621812358       -2.0124291160
 S         -0.0385472101       -1.9446579427       -3.3392056713
 C         -1.0929899770       -0.7756601703       -2.5859985798
 C         -0.5840155560       -0.3602123022       -1.3795076859
 P         -1.2202915132        0.3226123888        0.1674435008
 C         -2.1841193350        1.7787684613       -0.2689355316
 C         -1.7638580610        2.5579321449       -1.3516988369
 C         -2.3850857756        3.7598135349       -1.6174574480
 C         -3.3999392660        4.2186114761       -0.7880497957
 C         -3.7880797093        3.4698103824        0.3168166618
 C         -3.1702573684        2.2687208459        0.5926644539
 C         -2.3136229681       -0.8037294619        1.0285817903
 C         -1.7960616009       -1.6655158019        2.0063120299
 C         -2.5732977110       -2.6772454724        2.5182200319
 C         -3.8725849420       -2.8672202790        2.0519414069
 C         -4.3785961525       -2.0373381391        1.0575613868
 C         -3.6149810316       -1.0178723675        0.5369926081
 C          2.7551586193        1.4170578457       -0.7502149814
 C          3.1407944367        2.7002594271       -1.0901196892
 H          2.8413647086        4.7932932075       -0.7563961387
 H          1.0900757981        4.4554471268        0.9495663058
 H          0.4007388651        2.1622888233        1.5679723456
 H          1.7321944437       -3.2470562035        0.4204211273
 H          3.6759047006       -4.6223381455        1.0803987185
 H          5.6794704200       -3.5446206611        2.0393574130
 H          5.7341194375       -1.0975525796        2.3532069676
 H          3.8001795553        0.2797048260        1.6905346600
 H          1.9862980729       -2.4468900001       -2.0568385353
 H         -1.9849135250       -0.4733823251       -3.0948573946
 H         -0.9658212947        2.1914158255       -1.9837033660
 H         -2.0750450735        4.3501945403       -2.4675671104
 H         -3.8773856963        5.1652492740       -0.9918807307
 H         -4.5692833438        3.8355143211        0.9674263101
 H         -3.4569916689        1.6828259462        1.4559507357
 H         -0.7811196216       -1.5118194768        2.3562031638
 H         -2.1774955557       -3.3278242637        3.2847072161
 H         -4.4813876451       -3.6611884466        2.4561329099
 H         -5.3813090940       -2.1950677857        0.6858869956
 H         -4.0014441013       -0.3735360033       -0.2409228714
 H          3.2103470329        0.5573497104       -1.2234472736
 H          3.9054776769        2.8505077695       -1.8382342415
  53
        -79.29295597
 C          2.3739561448        3.8784438074       -0.0744297524
 C          1.4706034299        3.5263363724        0.9239447317
 C          1.1744721648        2.2009767461        1.1502905916
 C          1.7907100546        1.2043403546        0.3864121658
 P          1.2417029626       -0.5064996796        0.5405867637
 C          2.7771913799       -1.4577768221        0.8203617582
 C          3.8623568316       -0.8861805212        1.4791323008
 C          4.9941545972       -1.6412909078        1.7204707119
 C          5.0360205030       -2.9740211940        1.3407201804
 C          3.9403710827       -3.5558409836        0.7202960597
 C          2.8066354875       -2.8064679545        0.4735040400
 C          0.6830076439       -1.0407568292       -1.0784474001
 C          1.2482478556       -1.4787565847       -2.2417384099
 S          0.0882807892       -1.4326112860       -3.5525969445
 C         -1.1604714720       -0.8119859098       -2.4909326909
 C         -0.6929254985       -0.6884797144       -1.2150035259
 P         -1.2483542810        0.0671706302        0.3088300806
 C         -1.9998703951        1.6575122845       -0.1330414731
 C         -1.2896287766        2.4566502324       -1.0342124311
 C         -1.8217378686        3.6558609212       -1.4589706140
 C         -3.0612408382        4.0720780835       -0.9942503240
 C         -3.7703730483        3.2754332532       -0.1043189518
 C         -3.2472026370        2.0747020116        0.3304942655
 C         -2.5710799804       -0.9470287723        0.9961907856
 C         -3.0089118396       -2.1071762430        0.3521229293
 C         -3.9554034561       -2.9090765128        0.9527107113
 C         -4.4496559586       -2.5919196549        2.2135346737
 C         -3.9801668784       -1.4669744515        2.8787133614
 C         -3.0352112257       -0.6562973727        2.2867868066
 C          2.7018987009        1.5606358423       -0.6167009661
 C          2.9827978417        2.8914103576       -0.8400131910
 H          2.6010503719        4.9181115949       -0.2543005086
 H          0.9997630652        4.2948821825        1.5193560754
 H          0.4670091258        1.9119275110        1.9179758227
 H          3.8190204982        0.1543176537        1.7708434093
 H          5.8446928477       -1.1910686379        2.2112867917
 H          5.9207097162       -3.5621879611        1.5340962233
 H          3.9714983020       -4.5967727343        0.4329680031
 H          1.9419215326       -3.2515428205        0.0010780806
 H          2.2390749780       -1.8351366842       -2.4367586096
 H         -2.1385894339       -0.6289601037       -2.8867989650
 H         -0.3208646536        2.1305489303       -1.3870156095
 H         -1.2691630542        4.2711109636       -2.1536197499
 H         -3.4754577548        5.0123669753       -1.3250912124
 H         -4.7384266862        3.5959515298        0.2523301624
 H         -3.8067544993        1.4524607520        1.0129950956
 H         -2.6155040180       -2.3517429724       -0.6241361585
 H         -4.3096477704       -3.7928060586        0.4428735063
 H         -5.1838835951       -3.2296947037        2.6815271854
 H         -4.3495832062       -1.2312952020        3.8662351289
 H         -2.6496825735        0.2121288604        2.8052775819
 H          3.1680696000        0.7842674697       -1.2085143450
 H          3.6813109321        3.1678699154       -1.6169491645
  53
        -79.29293554
 C          2.1794039047        3.9061680751       -0.2027702453
 C          1.3091832248        3.5497670734        0.8226566403
 C          1.0788528115        2.2214300831        1.1013563333
 C          1.7292127937        1.2264933143        0.3632713737
 P          1.2547625703       -0.5000955067        0.5814609997
 C          2.8372512900       -1.3640783106        0.8845387493
 C          2.9415071790       -2.7197670609        0.5836929483
 C          4.1191656031       -3.3936395650        0.8425935102
 C          5.1836072183       -2.7300003985        1.4343758877
 C          5.0665838403       -1.3906442745        1.7730994380
 C          3.8920738671       -0.7101709965        1.5157915430
 C          0.7057146790       -1.1331313863       -1.0059417876
 C          1.2799651733       -1.6169067865       -2.1470128891
 S          0.1155705975       -1.6783756764       -3.4526600931
 C         -1.1477144795       -1.0376438314       -2.4202680375
 C         -0.6801896324       -0.8280832696       -1.1554232479
 P         -1.2511056292        0.0018160250        0.3233677460
 C         -1.9351045954        1.5987624328       -0.2049612559
 C         -1.2182327282        2.3026581862       -1.1764502042
 C         -1.6957064033        3.5074352777       -1.6482833486
 C         -2.8870593867        4.0236946872       -1.1605269463
 C         -3.6050376687        3.3207409903       -0.2018852709
 C         -3.1356361599        2.1152330990        0.2795840541
 C         -2.6359936445       -0.9317438521        1.0065339129
 C         -3.1085108217       -0.5930479411        2.2822589613
 C         -4.1115085176       -1.3365738639        2.8667607010
 C         -4.6317149508       -2.4440629206        2.2105408454
 C         -4.1284704477       -2.8127734937        0.9673983553
 C         -3.1251092238       -2.0777102315        0.3738761712
 C          2.6093396559        1.5876864934       -0.6655985228
 C          2.8243113090        2.9206987220       -0.9409198298
 H          2.3541594877        4.9478323392       -0.4247120180
 H          0.8119548856        4.3170707257        1.3979730662
 H          0.4005128318        1.9283069248        1.8933368722
 H          2.1014081109       -3.2279600330        0.1301243664
 H          4.2079583620       -4.4397433294        0.5891164140
 H          6.1016187262       -3.2598265633        1.6407389719
 H          5.8930345139       -0.8773254797        2.2425106309
 H          3.7904859803        0.3346116517        1.7766187031
 H          2.2813424942       -1.9500480767       -2.3286825142
 H         -2.1307900109       -0.9023352695       -2.8233045736
 H         -0.2855212537        1.9008904746       -1.5472958031
 H         -1.1370164664        4.0482728285       -2.3979312514
 H         -3.2582099007        4.9687649989       -1.5272026251
 H         -4.5363742807        3.7190688105        0.1735385771
 H         -3.7022146928        1.5676878483        1.0182480360
 H         -2.6822956790        0.2586411219        2.7964479760
 H         -4.4858328705       -1.0634236113        3.8427343450
 H         -5.4133516404       -3.0283326293        2.6714490048
 H         -4.5241952161       -3.6829113470        0.4640930055
 H         -2.7256746875       -2.3643808186       -0.5880535579
 H          3.1040936968        0.8124834651       -1.2356112309
 H          3.4994602170        3.2008778607       -1.7370649260
