  53
  -78.9919511335000       0.360951663581257      !
 C          5.3206968099        1.8493800997        0.4313538240
 C          5.0687463644        0.7793969371        1.2813354541
 C          3.8537493487        0.1286375582        1.2363268718
 C          2.8919562547        0.5160637991        0.3002595575
 P          1.2382228041       -0.2084279918        0.3145798457
 C          1.4340196939       -1.9277630853        0.7828709575
 C          2.4656014988       -2.6862337715        0.2002665041
 C          2.4967877754       -4.0494683845        0.3854566831
 C          1.5107491244       -4.6871078244        1.1305315865
 C          0.4728517958       -3.9427276053        1.6857214547
 C          0.4279846274       -2.5795204328        1.5090398253
 C          0.6305165652       -0.0926408326       -1.3813160963
 C          1.1051125393       -0.3539519914       -2.6434928673
 S         -0.2067475808       -0.6733478260       -3.7484785992
 C         -1.3927914487       -0.4493504309       -2.4909719062
 C         -0.7974717738       -0.1568899975       -1.3100920865
 P         -1.2811198059        0.1083857039        0.4124946101
 C         -1.1666763221        1.9139127561        0.5356050489
 C         -1.9806826489        2.7180283817       -0.2597685790
 C         -1.8355417977        4.0910843968       -0.2173272836
 C         -0.8819089061        4.6676485010        0.6089061112
 C         -0.0707283274        3.8678766323        1.4000872129
 C         -0.2126167367        2.4937099056        1.3637555559
 C         -3.0517524533       -0.2673230076        0.4789522245
 C         -3.9382211897        0.5003235387        1.2408206344
 C         -5.2516018386        0.1034831174        1.3715068458
 C         -5.6892335219       -1.0814861470        0.7903901542
 C         -4.7973151975       -1.8761280830        0.0818022365
 C         -3.4820798367       -1.4876750701       -0.0572136558
 C          3.1292154219        1.6247831412       -0.5166796050
 C          4.3462768638        2.2716328464       -0.4627238745
 H          6.2697862447        2.3619929292        0.4771688589
 H          5.8240978223        0.4611808742        1.9850510519
 H          3.6440489126       -0.7005304024        1.8987885127
 H          3.2250657056       -2.1867057671       -0.3858261014
 H          3.2942978576       -4.6296730237       -0.0568451786
 H          1.5459024306       -5.7562045920        1.2730087110
 H         -0.2972289992       -4.4381089853        2.2593108723
 H         -0.3776754414       -1.9926086232        1.9365734591
 H          2.1106325636       -0.3638863027       -3.0105053946
 H         -2.4328298515       -0.5347614336       -2.7360522596
 H         -2.7147004662        2.2574220448       -0.9070643327
 H         -2.4628272398        4.7161847680       -0.8360014464
 H         -0.7694690122        5.7411728714        0.6342377444
 H          0.6717925019        4.3162577850        2.0434422747
 H          0.4131312066        1.8586460120        1.9805263372
 H         -3.5923217758        1.4180408770        1.6973806150
 H         -5.9427919480        0.7136686715        1.9347525236
 H         -6.7170542291       -1.3909515713        0.9038944264
 H         -5.1330809996       -2.8055979719       -0.3551595750
 H         -2.7757092233       -2.1054435579       -0.5956039428
 H          2.3568949302        1.9472780878       -1.2023324880
 H          4.5384364411        3.1135737271       -1.1120449290
  53
  -78.9917471421000       0.290871446885358      !
 C          4.9318127314        1.3716233456        0.5262114408
 C          3.7899641404        1.9674716945        1.0572036062
 C          2.5980677448        1.2826424168        1.0765812621
 C          2.5275884083       -0.0266740734        0.5802736897
 P          0.9336860711       -0.8069821909        0.3408411496
 C          1.1585087558       -2.5755957052        0.6021289361
 C          0.2634298515       -3.4587638654       -0.0092639398
 C          0.3187149141       -4.8056924128        0.2810708725
 C          1.2337646599       -5.2813751359        1.2106827071
 C          2.0922096593       -4.3996908611        1.8565555911
 C          2.0417227322       -3.0508883536        1.5754398050
 C          0.3518092930       -0.6114650851       -1.3585145891
 C          0.7345185838       -1.0276675057       -2.6103915773
 S          0.1699188432        0.0798551089       -3.8357020843
 C         -0.5822893067        1.1023661250       -2.6411828361
 C         -0.3938347042        0.6104356256       -1.3942578233
 P         -0.7382637902        1.1010608879        0.3120911525
 C         -1.5170599733        2.7354243706        0.1843781909
 C         -0.8482212027        3.7223195171       -0.5490197452
 C         -1.3387666063        5.0103469755       -0.5790357596
 C         -2.4716564244        5.3428972607        0.1521067833
 C         -3.1057262594        4.3777579283        0.9254168100
 C         -2.6224570111        3.0870891723        0.9637386383
 C         -2.0962129800       -0.0311716729        0.7267343949
 C         -1.9378072035       -0.9444377480        1.7621046586
 C         -2.9337829836       -1.8642389885        2.0323873134
 C         -4.0896037115       -1.8745116837        1.2667564368
 C         -4.2508999366       -0.9618739522        0.2350927054
 C         -3.2585480711       -0.0397416942       -0.0391269406
 C          3.6759183018       -0.6146944950        0.0183300843
 C          4.8608578747        0.0847947252        0.0043958953
 H          5.8666779118        1.9102150732        0.5140385560
 H          3.8431586440        2.9699863708        1.4562759256
 H          1.7022565960        1.7392516238        1.4833016697
 H         -0.4500902967       -3.0716085562       -0.7244032482
 H         -0.3584251739       -5.4906003246       -0.2080391876
 H          1.2677577810       -6.3347987433        1.4443468059
 H          2.7948206081       -4.7712995740        2.5882449983
 H          2.7000850001       -2.3546390367        2.0773497997
 H          1.2798526179       -1.8994369858       -2.9078198166
 H         -1.1182538234        1.9723912685       -2.9649389793
 H          0.0419384388        3.4553713175       -1.1031357920
 H         -0.8354026482        5.7643970300       -1.1667374200
 H         -2.8504247503        6.3534646222        0.1327121763
 H         -3.9790194748        4.6406881868        1.5047058014
 H         -3.1095433425        2.3352412402        1.5697527754
 H         -1.0306458599       -0.9236336529        2.3552599694
 H         -2.8079396359       -2.5751470966        2.8355293192
 H         -4.8645202038       -2.5981173159        1.4713744145
 H         -5.1496922494       -0.9773370558       -0.3640894453
 H         -3.3685972804        0.6703541651       -0.8478202655
 H          3.6136512100       -1.6131885226       -0.3925975425
 H          5.7445237293       -0.3723727962       -0.4182044466
  53
  -78.9911968962000       0.162489605465175      !
 C          4.0096962287        2.1110354717        0.7367103639
 C          2.9057699027        2.1739373750        1.5726296861
 C          1.9350886120        1.1917799301        1.5049349611
 C          2.0668257420        0.1436918527        0.6019561324
 P          0.7296329359       -1.0779088863        0.4443000312
 C          1.5743585360       -2.6842607519        0.5415437996
 C          0.9280233290       -3.8012478250        0.0011767848
 C          1.4817668423       -5.0556871972        0.1468191975
 C          2.6576448287       -5.2199466776        0.8669111785
 C          3.2715788614       -4.1194461281        1.4522552915
 C          2.7256289283       -2.8607883038        1.3129487204
 C          0.3021644463       -0.8803636330       -1.3018298668
 C          0.4473977021       -1.5670991516       -2.4591017836
 S         -0.3693211334       -0.7604932464       -3.7707727112
 C         -0.8949797811        0.5304068104       -2.7205411688
 C         -0.4543174023        0.3284960807       -1.4351148215
 P         -0.9563896139        0.8076332865        0.2329696065
 C         -1.0835682162        2.6030668100        0.2379998580
 C         -0.1920642265        3.3379115499       -0.5502360229
 C         -0.1587585603        4.7128440158       -0.4526561310
 C         -0.9793668172        5.3674785010        0.4564071182
 C         -1.8325624194        4.6372705658        1.2755161502
 C         -1.8701249131        3.2620272767        1.1877239026
 C         -2.5600013756        0.1568812043        0.6918049079
 C         -2.6463546726       -1.0655576776        1.3734853127
 C         -3.8646714835       -1.6800519588        1.5403494079
 C         -5.0184148606       -1.1035605020        1.0129147563
 C         -4.9335008622        0.0908182335        0.3059547965
 C         -3.7223254991        0.7205152592        0.1329049155
 C          3.1782987838        0.0783754953       -0.2324835408
 C          4.1458846073        1.0630289401       -0.1611269683
 H          4.7649830869        2.8813850390        0.7833930930
 H          2.7998081942        2.9895030081        2.2726408327
 H          1.0687575103        1.2271334074        2.1555794707
 H          0.0050230142       -3.6636469920       -0.5461602247
 H          0.9949023473       -5.9134673803       -0.2943119969
 H          3.0865883124       -6.2034550107        0.9847929024
 H          4.1787819404       -4.2499669301        2.0243253220
 H          3.1988151948       -2.0024272402        1.7706985560
 H          0.9828045225       -2.4738135751       -2.6603716156
 H         -1.4632934246        1.3389419688       -3.1317920713
 H          0.4474280153        2.8131112608       -1.2475601562
 H          0.5141051832        5.2812596242       -1.0783713101
 H         -0.9435832507        6.4433818175        0.5387287697
 H         -2.4605812417        5.1486164239        1.9906589164
 H         -2.5225807245        2.6829414103        1.8278126234
 H         -1.7404410642       -1.5077392350        1.7734222972
 H         -3.9299266467       -2.6126025431        2.0821112419
 H         -5.9738930301       -1.5869692640        1.1462353852
 H         -5.8269713428        0.5294005329       -0.1157202021
 H         -3.6498149927        1.6463164557       -0.4214504927
 H          3.2701259347       -0.7397418180       -0.9342635692
 H          5.0056960255        1.0189479271       -0.8136387268
  53
  -78.9906064084000       8.698736597576487E-002 !
 C          3.4078251940        2.7692551468        0.8367221975
 C          2.9310651595        2.1078729434        1.9608865377
 C          2.2220586363        0.9346106383        1.8252922593
 C          2.0012421476        0.3891836740        0.5548631586
 P          0.9157162677       -1.0496362715        0.3902246745
 C          2.0357023624       -2.4948425407        0.4633015122
 C          1.5671379259       -3.7165390579       -0.0183630816
 C          2.3551425238       -4.8450984976        0.0799187891
 C          3.5974523753       -4.7726574342        0.6955224796
 C          4.0481794282       -3.5669558342        1.2107707264
 C          3.2673510972       -2.4312763496        1.1120347640
 C          0.2505702981       -1.0845497836       -1.2676565948
 C          0.6818680860       -1.4538734852       -2.5100243556
 S         -0.4790531484       -0.9870946656       -3.7348643608
 C         -1.5443701022       -0.2958586536       -2.5293702874
 C         -1.0114349449       -0.4280072421       -1.2786140686
 P         -1.3889638709        0.1459253204        0.3706541510
 C         -0.8429769284        1.8641292285        0.5316925074
 C         -0.5318624960        2.6270111209       -0.5979814253
 C          0.0173382995        3.8816958251       -0.4485421728
 C          0.2796037273        4.3901623665        0.8176321394
 C         -0.0152428603        3.6308038766        1.9421591791
 C         -0.5594838206        2.3726419011        1.8048837507
 C         -3.2164255318        0.2272865085        0.4202942821
 C         -3.8831938026        1.2681375391        1.0633420388
 C         -5.2624281080        1.2503744588        1.1446818210
 C         -5.9807540205        0.1886113812        0.6166653048
 C         -5.3156000133       -0.8660151473        0.0064833047
 C         -3.9380227544       -0.8587748621       -0.0736712384
 C          2.4726868587        1.0650545835       -0.5748043964
 C          3.1758597356        2.2406293114       -0.4270695969
 H          3.9551457853        3.6932742142        0.9438184657
 H          3.1106055036        2.5186469163        2.9439168409
 H          1.8393210776        0.4164634771        2.6945913719
 H          0.5933412734       -3.7603889379       -0.4878209257
 H          2.0025491838       -5.7860643425       -0.3165861526
 H          4.2092031268       -5.6583316275        0.7808110285
 H          5.0131697614       -3.5133534589        1.6936841790
 H          3.6171669953       -1.4863962529        1.5036737297
 H          1.5701197825       -1.9758934118       -2.8029331862
 H         -2.4775475914        0.1297224035       -2.8381212277
 H         -0.7332439457        2.2273731638       -1.5820124226
 H          0.2472472896        4.4725704461       -1.3235386247
 H          0.7135160018        5.3724024208        0.9261767116
 H          0.1878929517        4.0255496924        2.9271667452
 H         -0.7853538360        1.7705707684        2.6750538013
 H         -3.3185736550        2.0980138704        1.4645858246
 H         -5.7813034299        2.0676546352        1.6247558904
 H         -7.0581143050        0.1770909774        0.6884952488
 H         -5.8758032821       -1.6953836081       -0.3997061761
 H         -3.4062945865       -1.6780063052       -0.5397270528
 H          2.2868277496        0.6537432355       -1.5570506490
 H          3.5464976034        2.7555537982       -1.3017855669
  53
  -78.9902319357000       5.852756325470254E-002 !
 C          3.9095263905        2.1606713466        0.8547728743
 C          2.8567145996        2.0493237314        1.7580814734
 C          1.9541938679        1.0161578330        1.6417678072
 C          2.1006772452        0.0683027271        0.6236043619
 P          0.8022389272       -1.1520381359        0.3461546750
 C          1.6787689273       -2.7556661533        0.3145434446
 C          2.8375015008       -2.9519401646        1.0609349987
 C          3.4549964232       -4.1880996072        1.0574766434
 C          2.9031883191       -5.2400352499        0.3425833255
 C          1.7268324660       -5.0567942684       -0.3691031636
 C          1.1054625371       -3.8232175100       -0.3723327354
 C          0.2141884961       -0.9398165095       -1.3355115988
 C          0.6153854757       -1.2938542913       -2.5918095288
 S         -0.2579662823       -0.3805780572       -3.8039094869
 C         -1.1643543884        0.4783825659       -2.5741386529
 C         -0.8164020665        0.0469732557       -1.3272772170
 P         -1.0942165241        0.5761050202        0.3592624769
 C         -0.9673738179        2.3852278588        0.3733692032
 C          0.1160937745        2.9421819249       -0.3129790002
 C          0.2507661835        4.3123282004       -0.3918992254
 C         -0.6868578445        5.1406580645        0.2083508092
 C         -1.7671205061        4.5880350900        0.8844645231
 C         -1.9113070846        3.2184014579        0.9730041863
 C         -2.7962272801        0.1819933363        0.8048001404
 C         -3.6635340016       -0.4307761026       -0.1033600656
 C         -4.9273991432       -0.8037523749        0.3005331269
 C         -5.3320844955       -0.6094787592        1.6169823666
 C         -4.4554612334       -0.0466931733        2.5352352916
 C         -3.1896512954        0.3323013227        2.1420382278
 C          3.1627820322        0.1806119817       -0.2834608131
 C          4.0541740222        1.2248667427       -0.1622758218
 H          4.6131498202        2.9741783584        0.9439625389
 H          2.7469890016        2.7766137149        2.5492057067
 H          1.1247933414        0.9212115513        2.3320387656
 H          3.2594087423       -2.1244192276        1.6148422463
 H          4.3666443118       -4.3338127083        1.6184415723
 H          3.3863906481       -6.2057055799        0.3449847387
 H          1.2935838377       -5.8799354415       -0.9184659405
 H          0.1820371067       -3.6709095040       -0.9137160497
 H          1.3371306477       -2.0192384834       -2.9075304824
 H         -1.9003181654        1.1962169303       -2.8741293933
 H          0.8475598292        2.2915558353       -0.7722819180
 H          1.0900632734        4.7385814092       -0.9213305800
 H         -0.5788322895        6.2130023692        0.1484949903
 H         -2.5009420075        5.2326665693        1.3459996379
 H         -2.7588602028        2.7925505030        1.4891384044
 H         -3.3403080535       -0.5854553213       -1.1228029191
 H         -5.6044524128       -1.2559270772       -0.4090708673
 H         -6.3200703783       -0.9125873894        1.9282270932
 H         -4.7628428969        0.0862853109        3.5623894226
 H         -2.4931076623        0.7545221443        2.8549096699
 H          3.2644007249       -0.5519377082       -1.0729865098
 H          4.8706885011        1.3157193338       -0.8644366609
  53
  -78.9898763124000       4.017235483774280E-002 !
 C          3.6836154720        2.3255715892        1.0352584318
 C          2.6020382015        2.1532008279        1.8933289022
 C          1.7695183772        1.0669890145        1.7441330029
 C          2.0163716244        0.1265552133        0.7380095374
 P          0.8011386300       -1.1644762729        0.4059475621
 C          1.7733065397       -2.7125552169        0.4365105159
 C          1.3119375235       -3.8205155328       -0.2697699123
 C          2.0167238513       -5.0076455872       -0.2249203566
 C          3.1620966575       -5.1066343252        0.5509544029
 C          3.5992512101       -4.0167508873        1.2880791755
 C          2.8999253501       -2.8259673142        1.2468149566
 C          0.2751209681       -1.0098199245       -1.3032693504
 C          0.7412077908       -1.3750415511       -2.5342127950
 S         -0.1189662867       -0.5286663933       -3.8023048352
 C         -1.1087061118        0.3197641177       -2.6306220343
 C         -0.7932589046       -0.0656446352       -1.3600786048
 P         -1.1543802014        0.4975992751        0.2993937284
 C         -0.9741946397        2.3044302608        0.2884895233
 C          0.1171494627        2.8261909372       -0.4114384223
 C          0.2982190762        4.1912145280       -0.4890261685
 C         -0.6008221114        5.0492562098        0.1267996448
 C         -1.6907925617        4.5322946674        0.8148009212
 C         -1.8807759781        3.1678058090        0.9012660597
 C         -2.8945165437        0.1726347993        0.6493772570
 C         -3.3550156193        0.3316909610        1.9639507775
 C         -4.6585959013        0.0152369513        2.2817758358
 C         -5.5090279710       -0.4958430577        1.3105221295
 C         -5.0395237847       -0.7033530121        0.0178074645
 C         -3.7380012737       -0.3917409889       -0.3112175018
 C          3.1093456148        0.2992712366       -0.1217777047
 C          3.9298387441        1.3956684654        0.0319765693
 H          4.3317890049        3.1810231182        1.1489943371
 H          2.4145774116        2.8747914548        2.6750867454
 H          0.9207694024        0.9217365952        2.4012679969
 H          0.4128131955       -3.7329434367       -0.8644610677
 H          1.6713075621       -5.8606919985       -0.7901347279
 H          3.7088088410       -6.0370739609        0.5888290483
 H          4.4861822656       -4.0979423977        1.8993279059
 H          3.2323346518       -1.9700577258        1.8185181320
 H          1.5070101014       -2.0734420283       -2.8035213641
 H         -1.8576096724        1.0019465414       -2.9784078226
 H          0.8204148999        2.1534662277       -0.8823456711
 H          1.1442060478        4.5893007597       -1.0298080804
 H         -0.4562998829        6.1175078184        0.0692368295
 H         -2.3950516470        5.2002388513        1.2890009959
 H         -2.7350475694        2.7707394286        1.4294704249
 H         -2.6793102077        0.7099239731        2.7201160610
 H         -5.0160415123        0.1547231658        3.2917414622
 H         -6.5278613902       -0.7479974641        1.5618385786
 H         -5.6980543295       -1.1143003918       -0.7335340185
 H         -3.3664378999       -0.5581409378       -1.3118615416
 H          3.2903292343       -0.4292538748       -0.9009643800
 H          4.7706748489        1.5326470554       -0.6331586971
