53
 energy: -78.679600474980 gnorm: 0.000068065792 xtb: 6.7.1 (edcfbbe)
C           -4.70454230399989       -0.52325293752629        1.62785869454397
C           -4.05167925838328       -0.27773160619306        0.25542734966883
C           -5.11964676567274       -0.29535678191353       -0.85342917713697
C           -3.38969673867249        1.08743647379644        0.26862529697820
C           -4.15709719887841        2.21861226578517        0.50989414723798
C           -3.60782894570757        3.48729162780201        0.53383959704651
C           -2.25146448751366        3.64210219975916        0.31224924664862
C           -1.46502798177138        2.53563078579103        0.06982920675474
C           -2.01959720686452        1.25305060082318        0.04286977783572
N           -1.20344162883203        0.16009805474380       -0.20243894130989
C            0.18205915510984        0.37457839890693       -0.43425018120761
C            0.64029560244419        0.63552942800047       -1.72117926549907
C            1.98620882135574        0.84949563897794       -1.93962621264833
C            2.89351939894941        0.78451683818613       -0.88357000937041
C            4.33006085913542        1.04625004629104       -1.16453445337539
O            4.67305188093822        1.80500453788777       -2.04851819881036
C            5.32132201987867        0.34025274480651       -0.31388132416661
C            6.53373272924174        0.97063571972963       -0.04102542967165
C            7.48907356977453        0.34069903292153        0.73307059720918
C            7.25192997886669       -0.93388886947253        1.22279598117968
C            6.05979630818199       -1.57822460560697        0.93250716964172
C            5.09396276241197       -0.94602976902055        0.17120998764391
C            2.42727140554443        0.53389624052226        0.40552514120876
C            1.07860752834983        0.33340330890075        0.62823410652618
C           -1.69661824727379       -1.13379874845122       -0.23218511848446
C           -0.82680730935724       -2.19793217199132       -0.48664821415965
C           -1.28766309643593       -3.49711459455926       -0.52253680840455
C           -2.62844944305308       -3.75774828058372       -0.30577149182397
C           -3.49078519558691       -2.70570037653322       -0.05742528558992
C           -3.05460444690025       -1.38879765122347       -0.01515868511069
H           -5.43955537518259        0.24494809528396        1.85134413862835
H           -3.94467262531082       -0.50833401098876        2.40706171516494
H           -5.20316852217401       -1.48819845215738        1.65378254758091
H           -4.65122352333260       -0.12263782496245       -1.82065200485032
H           -5.86232458959988        0.48046746553877       -0.68907558947575
H           -5.62980368152534       -1.25410873123460       -0.88605730042092
H           -5.21716751438665        2.11321148612397        0.68500728936996
H           -4.23430691816382        4.34527616962009        0.72430211850489
H           -1.80161407871241        4.62357084481478        0.32748046281908
H           -0.40687333983395        2.66282947348681       -0.10151068763171
H           -0.06576870061321        0.67476829576867       -2.53716628830670
H            2.35886494607318        1.06367603035099       -2.93009293211671
H            6.70372145829475        1.95980010507894       -0.43949788947207
H            8.42165162021591        0.83947490410868        0.95119704989304
H            7.99947836811968       -1.42924690091864        1.82463628075581
H            5.88299223591608       -2.57795131379852        1.30110161802977
H            4.17351799848795       -1.45836862472198       -0.06860435468313
H            3.11726178138996        0.52011549109959        1.23629070269604
H            0.70768900850098        0.14504011087231        1.62484944991555
H            0.22016914085033       -1.99941823876283       -0.65998184528796
H           -0.59759406990800       -4.30362691750265       -0.72136859414018
H           -3.00200688953762       -4.77001353808277       -0.33146735368845
H           -4.53521049483915       -2.92417946956342        0.10666396336655
