53
 energy: -78.599355554646 gnorm: 0.000043575636 xtb: 6.7.1 (edcfbbe)
C           -5.09879953027712       -0.58419419637019        1.66844178254396
C           -4.44536194858834       -0.29531542808059        0.30341887577458
C           -5.52196852924582       -0.21831947704818       -0.79595215368838
C           -3.73321371991672        1.03833636144490        0.38183624733451
C           -4.45399616969797        2.18731635392706        0.67575692227781
C           -3.84791262451541        3.42653048609625        0.77242850533660
C           -2.47901318687558        3.53473722055884        0.58044564620866
C           -1.73775767752715        2.41316885671999        0.28736596801904
C           -2.34999793925879        1.15630277669377        0.17442976475286
N           -1.58077644606185        0.05449704775603       -0.13023731908683
C           -0.18051150691270        0.22136192861362       -0.33059839635086
C            0.31388239392646        0.68459179288778       -1.55454717848508
C            1.66109995897204        0.83382095245392       -1.73963477486499
C            2.58215704914329        0.50212106704293       -0.71306748464053
C            3.97652988985041        0.70333717695021       -0.97660168890066
O            4.36243197043385        1.38627426960217       -1.97278902764652
C            4.99489850349635        0.12727705732275       -0.08574410303183
C            6.19964274106382        0.81609706684660        0.09441574086463
C            7.18271478010471        0.29552455336367        0.90946377226876
C            6.99881914015618       -0.92683667638793        1.53844965179467
C            5.82538584926286       -1.63545166531597        1.32741343447506
C            4.83188028320201       -1.12366871393554        0.51680506194054
C            2.06031580647396        0.08668571681204        0.53091307393238
C            0.70755963626492       -0.05844111295676        0.71135046118621
C           -2.12475961290314       -1.20661701459161       -0.24051074460805
C           -1.29569902447746       -2.28592766731444       -0.57950019160255
C           -1.80496450556652       -3.55940282464839       -0.68918092795303
C           -3.15488662094410       -3.78415881393732       -0.46626643272422
C           -3.97914231623429       -2.72096576613170       -0.14630634053775
C           -3.49503400271851       -1.42541513033677       -0.03031009296037
H           -5.80205954317378        0.19976669671578        1.93411489127537
H           -4.33472273475953       -0.63716066941730        2.44161692036467
H           -5.63363676848004       -1.52936684438791        1.64876465626675
H           -6.23418893150569        0.57413403720502       -0.58511554692358
H           -6.06692098966835       -1.15493887255115       -0.87012182019092
H           -5.05551930925217       -0.01476621634061       -1.75789797265050
H           -5.51910048200767        2.12031285551936        0.83651104066502
H           -4.43871016699529        4.30004370938580        1.00108857690067
H           -1.99023564823478        4.49340039771590        0.66125951708691
H           -0.67208036262381        2.49453323090474        0.14441501475700
H           -0.38119096784606        0.91747218263159       -2.34841276889064
H            2.06136422441851        1.19113735800197       -2.67602734255444
H            6.33676659729832        1.76458061797375       -0.40189880750464
H            8.10163962048439        0.84527105989917        1.05433767715991
H            7.77098778254474       -1.33407565294670        2.17412085956211
H            5.68858908116387       -2.60360498815108        1.78825052809142
H            3.94496176884682       -1.70793604987475        0.32138337040786
H            2.72457157868339       -0.08335958321711        1.36388485933818
H            0.31309222772720       -0.37588609903972        1.66650371674714
H           -0.24745479637489       -2.10735590743483       -0.75884441916948
H           -1.15110568894146       -4.37728825613206       -0.95021482292435
H           -3.56403541083918       -4.77937542883380       -0.54682398299048
H           -5.02888807907695       -2.91275274486632        0.01496851094102
