  53
        -78.59319108
 C         -5.0874817212       -0.5838360816        1.6682666851
 C         -4.4388996540       -0.3080873025        0.2979402194
 C         -5.5164819821       -0.2714014556       -0.8027392796
 C         -3.7515146329        1.0390746760        0.3535167896
 C         -4.4950796169        2.1797948418        0.6215772265
 C         -3.9113760052        3.4306629112        0.7052477571
 C         -2.5414100881        3.5586274427        0.5321118409
 C         -1.7777067160        2.4457892778        0.2657461956
 C         -2.3678581999        1.1772382045        0.1574698067
 N         -1.5773651679        0.0851633422       -0.1264358130
 C         -0.1794466558        0.2692401439       -0.3121645088
 C          0.3200041246        0.8161074478       -1.5020948828
 C          1.6662050232        0.9727377696       -1.6749845539
 C          2.5872608117        0.5618016130       -0.6743078039
 C          3.9826038496        0.7696077189       -0.9316091329
 O          4.3716755479        1.5071701567       -1.8773981486
 C          4.9896722532        0.1263401532       -0.0711511733
 C          6.2003233470        0.7902699803        0.1572971104
 C          7.1749988499        0.2079729389        0.9396994740
 C          6.9774449116       -1.0518666828        1.4856865666
 C          5.7983162643       -1.7343237211        1.2242981597
 C          4.8123313599       -1.1598143212        0.4473309254
 C          2.0606072882        0.0722512596        0.5423371164
 C          0.7087461276       -0.0811371021        0.7113339701
 C         -2.1010568843       -1.1854674224       -0.2266574247
 C         -1.2556532138       -2.2540662436       -0.5623241428
 C         -1.7430341416       -3.5368470344       -0.6568916402
 C         -3.0877623998       -3.7832938889       -0.4235552279
 C         -3.9297407198       -2.7309376757       -0.1145862446
 C         -3.4680146840       -1.4257677838       -0.0153447043
 H         -5.8069297991        0.1905166838        1.9181884835
 H         -4.3231225541       -0.6059528216        2.4426280539
 H         -5.6024541842       -1.5401847750        1.6664618498
 H         -6.2445677676        0.5099998257       -0.6054593312
 H         -6.0427588993       -1.2196882002       -0.8608844584
 H         -5.0537769224       -0.0750979701       -1.7679892447
 H         -5.5602301906        2.0964669311        0.7738562561
 H         -4.5196094370        4.2973150364        0.9132762283
 H         -2.0694115699        4.5259832345        0.6087842301
 H         -0.7110174583        2.5425061999        0.1421928373
 H         -0.3737599388        1.1004523333       -2.2803618795
 H          2.0722635662        1.3894179392       -2.5838459133
 H          6.3474946964        1.7672379501       -0.2767066446
 H          8.0987177030        0.7377206366        1.1233577566
 H          7.7439085787       -1.5079207742        2.0945634700
 H          5.6513291696       -2.7298707772        1.6188454705
 H          3.9198356495       -1.7206057138        0.2123887762
 H          2.7229938521       -0.1496731579        1.3647897690
 H          0.3109724505       -0.4560287355        1.6442244891
 H         -0.2125628344       -2.0588163249       -0.7529001056
 H         -1.0769062546       -4.3456164056       -0.9150823182
 H         -3.4792432802       -4.7865389333       -0.4908725400
 H         -4.9758212051       -2.9386833445        0.0504059545
