53
 energy: -78.599334409497 gnorm: 0.000171913439 xtb: 6.7.1 (edcfbbe)
C           -5.10671967276892       -0.73494836517752        1.60304945428818
C           -4.44184673434591       -0.40848712698746        0.25212287326031
C           -5.50406797136499       -0.34512969168417       -0.86206284051616
C           -3.76787570847309        0.94272693873061        0.36047643982094
C           -4.52419200322581        2.06634057712872        0.66305047191221
C           -3.95379849086824        3.31955757934384        0.79106512518350
C           -2.58521948888229        3.46749810298743        0.62535240686136
C           -1.80935670949357        2.37187735535608        0.32365957790246
C           -2.38571178936596        1.10184773254296        0.17458899533744
N           -1.58287649762810        0.02738023483531       -0.14184782894163
C           -0.18695081070932        0.23541033688900       -0.32943477291279
C            0.29819910540835        0.77924814121469       -1.52380067664295
C            1.64274002950216        0.95832477367986       -1.70183848404546
C            2.57065949377943        0.57382837947035       -0.70049754469586
C            3.96359073927450        0.79710746350487       -0.95766072624496
O            4.33925320676872        1.55010935643598       -1.90590759810183
C            4.98792500194938        0.15832574911704       -0.11922774273500
C            6.20196555046932        0.82371093067035        0.08666371144882
C            7.19286283765188        0.24219578341808        0.84921246351258
C            7.00749412620590       -1.01736174339151        1.39951753801344
C            5.82390457997758       -1.70037813785540        1.16213181337243
C            4.82267914783237       -1.12797302821534        0.40341979150024
C            2.05767778707308        0.08302014481447        0.51951092831767
C            0.70755036268407       -0.09048815639936        0.69378684987063
C           -2.09089240153908       -1.24655428933979       -0.27938550220955
C           -1.23066302417519       -2.29652058844510       -0.63281035393008
C           -1.70316949035326       -3.58191055687673       -0.76566755161856
C           -3.04716057261483       -3.84838764020634       -0.55357871122784
C           -3.90298795013088       -2.81349313772428       -0.22411287492780
C           -3.45617755524027       -1.50683325111042       -0.08482584472658
H           -5.61419070850228       -1.69441416837387        1.56250434144077
H           -5.83587724606468        0.02492634560807        1.86882607733824
H           -4.35286362845837       -0.77716060340723        2.38683902026429
H           -6.24101929514358        0.42424281693209       -0.65071777415683
H           -6.02151883865194       -1.29531653292616       -0.95767518189946
H           -5.02945595787702       -0.11484067828708       -1.81394796743618
H           -5.58937095281447        1.96758087966577        0.80590193387839
H           -4.57173215961493        4.17262204830047        1.02510775475433
H           -2.12358342145989        4.43684992976320        0.73360798575305
H           -0.74380169454442        2.48431732999670        0.20272214067896
H           -0.40182997146474        1.04823519718358       -2.30176929878214
H            2.03558413912330        1.37596575373858       -2.61610375944731
H            6.34022153872709        1.80151740240402       -0.34869914120936
H            8.11936781282176        0.77319913586406        1.01440084148787
H            7.78590478010803       -1.47230147694416        1.99388486178331
H            5.68514626511931       -2.69553628544914        1.56068962535992
H            3.92730654998596       -1.69079875472635        0.18491576343364
H            2.72671394271388       -0.12494981582928        1.33999246767810
H            0.31981110868666       -0.46740351688049        1.62990929303070
H           -0.18729581262726       -2.08639210308676       -0.80570922192955
H           -1.02507790590104       -4.37644809324209       -1.03679627656842
H           -3.42748862931032       -4.85340885614909       -0.65154044182136
H           -4.94822584075420       -3.03670870870308       -0.07450536731010
