  57
  -77.5822746768000       0.350902841377762      !
 C         -5.6250758387       -1.0343093811       -1.0187071782
 C         -4.7477116739       -1.3800079910        0.1926956034
 C         -4.5763847251       -2.9010830744        0.2352578325
 C         -5.4499828635       -0.9431080346        1.4859610202
 C         -3.4198271395       -0.6465433607        0.0736029926
 C         -3.4230939912        0.7531236532        0.0186527253
 C         -2.2687112082        1.5020929544       -0.0934592509
 C         -1.0609897632        0.8270982252       -0.1635920528
 C         -1.0267630971       -0.5796320420       -0.0846924594
 C         -2.2032450790       -1.3077353927        0.0292440766
 C          0.3589551871       -0.9595497338       -0.1350665480
 C          1.0020113240       -2.1898072411       -0.1231786972
 C          2.3824596071       -2.2433680028       -0.2207206961
 C          3.1560588267       -3.5531625900       -0.1960562034
 C          3.9199046596       -3.7144375731       -1.5178771213
 C          4.1451086762       -3.5278611813        0.9775202764
 C          2.2443078208       -4.7707619729       -0.0214972870
 C          3.0910714555       -1.0429689129       -0.3578604224
 C          2.4773706660        0.1929405119       -0.3725503558
 C          1.1002485410        0.2345801918       -0.2311099194
 N          0.2323465985        1.3140190256       -0.2451516002
 C          0.5913969999        2.6563188909       -0.3134865967
 C         -0.0038181026        3.4972360876       -1.2512189111
 C          0.3534994207        4.8296398227       -1.3293071776
 C          1.3193452099        5.3503489455       -0.4789288714
 C          1.9163170974        4.5366580285        0.4624434692
 C          1.5532524103        3.1921992479        0.5614909929
 C          2.1193218022        2.4125768453        1.5947906340
 N          2.5718403368        1.8289078440        2.4727622267
 H         -5.1255641906       -1.3282933067       -1.9395739518
 H         -6.5741615682       -1.5625428142       -0.9566586632
 H         -5.8317712772        0.0310106008       -1.0687097857
 H         -3.9878018235       -3.2041365056        1.0980429613
 H         -4.0979432916       -3.2662755823       -0.6705957571
 H         -5.5535344432       -3.3734392182        0.3130988463
 H         -4.8214534050       -1.1630379483        2.3464533773
 H         -5.6612470107        0.1225234189        1.4829766571
 H         -6.3913147500       -1.4766147821        1.5997698513
 H         -4.3618941168        1.2828623519        0.0696638002
 H         -2.3157840499        2.5809606214       -0.1129116408
 H         -2.1406979891       -2.3810566054        0.0867719053
 H          0.4056370099       -3.0825373038       -0.0414001938
 H          4.4625213321       -4.6574802799       -1.5245407624
 H          4.6348726119       -2.9095971040       -1.6626015500
 H          3.2258350391       -3.7088619598       -2.3559628874
 H          3.6109192518       -3.3851123500        1.9143076106
 H          4.8649414971       -2.7215532788        0.8722908775
 H          4.6906737883       -4.4678192414        1.0290503193
 H          2.8485171871       -5.6754643284        0.0025637680
 H          1.5438047783       -4.8574185758       -0.8488247964
 H          1.6902756936       -4.7114293686        0.9123177405
 H          4.1646140486       -1.0705638588       -0.4591037682
 H          3.0644916886        1.0907475804       -0.4954488815
 H         -0.7349867787        3.0847317917       -1.9303376648
 H         -0.1147491386        5.4645852066       -2.0661664900
 H          1.6025191825        6.3889824101       -0.5495846857
 H          2.6609236194        4.9279691500        1.1401804143
  57
  -77.5820767632000       0.284598162551955      !
 C         -5.4569725524       -0.9666886520        1.3459123753
 C         -4.7225295787       -1.4067479770        0.0716630818
 C         -5.5750173996       -1.0755456214       -1.1613271927
 C         -4.5413170542       -2.9260696913        0.1285601300
 C         -3.3977022518       -0.6640563808       -0.0210634964
 C         -3.4099284465        0.7348474629       -0.0887503668
 C         -2.2584261133        1.4917860844       -0.1751779695
 C         -1.0441212117        0.8257575975       -0.2046305723
 C         -1.0017416153       -0.5799017664       -0.1142032868
 C         -2.1751614534       -1.3160624598       -0.0271383728
 C          0.3880880036       -0.9493314521       -0.1200230226
 C          1.0442848694       -2.1684407334       -0.0811551825
 C          2.4312459700       -2.2124769963       -0.1324977806
 C          3.1292122037       -3.5634464008       -0.0688872526
 C          2.6845675618       -4.4151262926       -1.2663138495
 C          4.6552140911       -3.4474559453       -0.1065764323
 C          2.7394402562       -4.2636102117        1.2404646477
 C          3.1330921872       -1.0107924920       -0.2526500170
 C          2.5031142345        0.2197613033       -0.2964527262
 C          1.1236142242        0.2512458227       -0.2011830593
 N          0.2471273258        1.3229908758       -0.2503946177
 C          0.5968920122        2.6674163385       -0.3235671189
 C          0.0249624799        3.4916107257       -1.2901477951
 C          0.3747682702        4.8255704376       -1.3745003621
 C          1.3094756028        5.3647183062       -0.5011357139
 C          1.8822918237        4.5679662511        0.4692458822
 C          1.5264863288        3.2220740154        0.5742459392
 C          2.0654740878        2.4603473568        1.6348841634
 N          2.4942866617        1.8913094569        2.5339674102
 H         -5.6758550680        0.0972355967        1.3305915531
 H         -6.3966817862       -1.5063428068        1.4424952919
 H         -4.8463532049       -1.1759263093        2.2217374710
 H         -5.0504585368       -1.3658615569       -2.0692820232
 H         -5.7938342779       -0.0131295659       -1.2193045041
 H         -6.5187834746       -1.6151982484       -1.1200932481
 H         -4.0386518998       -3.2933799801       -0.7631441641
 H         -3.9714484507       -3.2190648976        1.0071410872
 H         -5.5165060953       -3.4053522571        0.1862670836
 H         -4.3537265068        1.2577493560       -0.0680649132
 H         -2.3129038331        2.5700715854       -0.2052820691
 H         -2.1063923512       -2.3883419794        0.0416396566
 H          0.4608038970       -3.0731721738       -0.0156042583
 H          3.1823921385       -5.3822569880       -1.2446997978
 H          2.9405924972       -3.9154228218       -2.1982495724
 H          1.6114745235       -4.5838880603       -1.2548145791
 H          5.0218350633       -2.8594231366        0.7312494546
 H          4.9917829339       -2.9952053219       -1.0364656747
 H          5.0948245712       -4.4406310902       -0.0388163142
 H          3.2471076050       -5.2226706229        1.3193771954
 H          1.6689001410       -4.4403298533        1.2925445699
 H          3.0246307289       -3.6493532401        2.0917373226
 H          4.2078918039       -1.0192867165       -0.3167651181
 H          3.0862118304        1.1219911134       -0.4052744265
 H         -0.6815904601        3.0648748705       -1.9862862997
 H         -0.0754175785        5.4475280896       -2.1333968743
 H          1.5860285213        6.4048951559       -0.5757357139
 H          2.6014694372        4.9739600100        1.1655259266
  57
  -77.5817724825000       0.206250193269118      !
 C         -4.8335515846       -2.3546601508       -0.8915550466
 C         -4.6890490550       -1.4257140539        0.3223383141
 C         -4.5981780907       -2.2609588230        1.6074095207
 C         -5.9474681570       -0.5579779293        0.4083951071
 C         -3.4139595333       -0.6082438269        0.1717628616
 C         -3.4173334523        0.7878276946        0.1306501326
 C         -2.2594477224        1.5328150968       -0.0097073303
 C         -1.0567758042        0.8584063552       -0.1231089553
 C         -1.0225632311       -0.5504836629       -0.0600913128
 C         -2.1963257840       -1.2710906336        0.0826522689
 C          0.3608060242       -0.9319880664       -0.1579660995
 C          1.0052251239       -2.1574085260       -0.1809512549
 C          2.3855779499       -2.2137311290       -0.3225628749
 C          3.0717185642       -3.5722314503       -0.3233945055
 C          4.5913550902       -3.4720783272       -0.4788115965
 C          2.7762522202       -4.2773537497        1.0079238586
 C          2.5266562624       -4.4111235508       -1.4879944947
 C          3.0904755899       -1.0167033021       -0.4670654193
 C          2.4717731660        0.2204140301       -0.4482125560
 C          1.1016137638        0.2631829607       -0.2641141477
 N          0.2348652089        1.3439955525       -0.2394917179
 C          0.5935969868        2.6864841778       -0.3058766677
 C         -0.0291924806        3.5369844833       -1.2167321882
 C          0.3265655545        4.8698930213       -1.2927238133
 C          1.3182177374        5.3818649512       -0.4671837697
 C          1.9429027467        4.5586973942        0.4475127435
 C          1.5822762034        3.2133875939        0.5443267293
 C          2.1800766129        2.4234979982        1.5515622929
 N          2.6600735905        1.8295530905        2.4078523569
 H         -3.9914374051       -3.0362332805       -0.9713950147
 H         -5.7430855565       -2.9455212360       -0.8060109315
 H         -4.8861665262       -1.7702615665       -1.8078103674
 H         -4.4683343372       -1.6104017258        2.4697263717
 H         -3.7598811798       -2.9508024206        1.5737813727
 H         -5.5095283486       -2.8390840465        1.7446667758
 H         -5.9119020233        0.0989024207        1.2743016337
 H         -6.0730554468        0.0408516079       -0.4906413715
 H         -6.8213208228       -1.1984974181        0.5094688335
 H         -4.3464482854        1.3265803048        0.2141010724
 H         -2.3049697630        2.6119350800       -0.0173556267
 H         -2.1446869675       -2.3474408086        0.1285571123
 H          0.4179529805       -3.0576017753       -0.0907901905
 H          5.0230507338       -4.4707096036       -0.4583945795
 H          5.0299394732       -2.8996837579        0.3348169332
 H          4.8590891139       -3.0106246863       -1.4263846310
 H          1.7100510574       -4.4333104660        1.1457268983
 H          3.1418950120       -3.6766446291        1.8379678337
 H          3.2696120292       -5.2466239146        1.0376104030
 H          3.0145199646       -5.3832892432       -1.5102990216
 H          2.7157031182       -3.9078040350       -2.4338765900
 H          1.4560674370       -4.5698502111       -1.3952765717
 H          4.1586516207       -1.0340568065       -0.6017761098
 H          3.0559609846        1.1189721309       -0.5793971508
 H         -0.7806457436        3.1314215661       -1.8776429092
 H         -0.1622980881        5.5117913763       -2.0099302813
 H          1.5997841014        6.4210008276       -0.5364394800
 H          2.7080333885        4.9429506592        1.1060790422
  57
  -77.5803221417000       4.444919312236403E-002 !
 C         -5.5823746700       -1.0567211181       -1.1095689662
 C         -4.7400005669       -1.3930664656        0.1292149854
 C         -4.5624613743       -2.9128235559        0.1839424453
 C         -5.4831162329       -0.9546932072        1.3988753005
 C         -3.4129853504       -0.6535036834        0.0430638160
 C         -3.4211926876        0.7460419895       -0.0120561306
 C         -2.2682371124        1.4997881861       -0.1056879676
 C         -1.0568120449        0.8299476642       -0.1592128686
 C         -1.0178905563       -0.5764814919       -0.0761712781
 C         -2.1927568981       -1.3092894792        0.0215618889
 C          0.3698114933       -0.9514263108       -0.1125852150
 C          1.0194968217       -2.1767406923       -0.0898772365
 C          2.4022775936       -2.2266378035       -0.1786752507
 C          3.1442382635       -3.5559427019       -0.1799998311
 C          3.3150197939       -4.0007644930       -1.6397217141
 C          4.5255109932       -3.4228935613        0.4748318830
 C          2.3669655773       -4.6340340683        0.5854447711
 C          3.1038504665       -1.0263549612       -0.3385865895
 C          2.4828614088        0.2071028592       -0.3589382881
 C          1.1071004189        0.2453225968       -0.2108655047
 N          0.2354597199        1.3217984884       -0.2309477808
 C          0.5922677919        2.6648439346       -0.2905525772
 C         -0.0017470974        3.5116823457       -1.2236785237
 C          0.3528153237        4.8454404416       -1.2901047536
 C          1.3149877042        5.3617388308       -0.4329151334
 C          1.9119895010        4.5417540533        0.5029228743
 C          1.5516556598        3.1958228638        0.5903585182
 C          2.1186015146        2.4094575300        1.6180919292
 N          2.5733517904        1.8218587307        2.4924506937
 H         -5.0520828462       -1.3472182283       -2.0140967343
 H         -6.5284548089       -1.5928255910       -1.0766076044
 H         -5.7962297494        0.0066753970       -1.1670826680
 H         -3.9948228864       -3.2084723643        1.0630488947
 H         -4.0590932795       -3.2801427545       -0.7072885203
 H         -5.5389263975       -3.3896873228        0.2388632220
 H         -4.8809643438       -1.1696649836        2.2789668409
 H         -5.6984334425        0.1097888065        1.3859615387
 H         -6.4255835625       -1.4911845069        1.4852603611
 H         -4.3629857367        1.2718455032        0.0221473796
 H         -2.3197285835        2.5783994792       -0.1262423826
 H         -2.1265047016       -2.3821785139        0.0826419428
 H          0.4284078539       -3.0733547459       -0.0084178735
 H          3.8477364272       -4.9481557378       -1.6866852597
 H          3.8767028588       -3.2576802241       -2.2014205234
 H          2.3440358117       -4.1237244874       -2.1148896835
 H          4.4403214656       -2.9438323437        1.4473582691
 H          5.2079954456       -2.8440470421       -0.1408967862
 H          4.9654983191       -4.4082163429        0.6126434215
 H          2.9797957167       -5.5268938816        0.6879240362
 H          1.4585112677       -4.9198977540        0.0625992470
 H          2.1055088940       -4.2808100522        1.5801604555
 H          4.1746806406       -1.0465374810       -0.4545146827
 H          3.0652092644        1.1063375057       -0.4940984078
 H         -0.7292092835        3.1028894335       -1.9088395109
 H         -0.1145017230        5.4850568200       -2.0234479430
 H          1.5954199776        6.4016926675       -0.4942261602
 H          2.6541270852        4.9291487544        1.1855440149
  57
  -77.5802389443000       4.070324218436237E-002 !
 C         -5.9306210912       -0.6318176065       -0.3108207800
 C         -4.7065524309       -1.4137769863        0.1784868486
 C         -4.6448579735       -2.7270892600       -0.6136024566
 C         -4.8804570614       -1.7266468067        1.6716536309
 C         -3.4152764985       -0.6235599173        0.0154537650
 C         -3.4194266642        0.7718553749       -0.0691224615
 C         -2.2600751237        1.5182501630       -0.1771081388
 C         -1.0511506035        0.8459012035       -0.2134385679
 C         -1.0158594769       -0.5594232880       -0.1001270944
 C         -2.1927299387       -1.2815687497        0.0176291444
 C          0.3717032838       -0.9383062300       -0.1261116500
 C          1.0213096872       -2.1607957658       -0.0868414864
 C          2.4063642088       -2.2146680289       -0.1744337094
 C          3.0981249948       -3.5687598921       -0.1075732267
 C          2.7661061162       -4.2275517498        1.2387677462
 C          2.5926283032       -4.4513514667       -1.2575897586
 C          4.6211896935       -3.4652823969       -0.2223229003
 C          3.1124283457       -1.0192768902       -0.3272133418
 C          2.4890228884        0.2146942793       -0.3692523322
 C          1.1125391778        0.2560464957       -0.2403458201
 N          0.2427952435        1.3334047927       -0.2877122637
 C          0.6028678336        2.6751561561       -0.3570650363
 C          0.0242283796        3.5126117970       -1.3080231383
 C          0.3830511256        4.8447709930       -1.3845336915
 C          1.3338302468        5.3687050395       -0.5192638050
 C          1.9142581499        4.5584044274        0.4353567536
 C          1.5493902912        3.2143448429        0.5327091286
 C          2.0973969887        2.4388431957        1.5787730749
 N          2.5357767356        1.8600593553        2.4669609467
 H         -5.7851182795       -0.2910210216       -1.3333508146
 H         -6.8077897114       -1.2748718009       -0.2867431236
 H         -6.1371025509        0.2261131648        0.3231956392
 H         -3.9214992565       -3.4182637727       -0.1916507072
 H         -4.3776630999       -2.5337477998       -1.6500086245
 H         -5.6160812345       -3.2168598971       -0.5936508301
 H         -4.0353806235       -2.3011476723        2.0434488683
 H         -4.9430567424       -0.8050859105        2.2462892078
 H         -5.7902375785       -2.3004496898        1.8350724634
 H         -4.3536989623        1.3077767577       -0.0450853160
 H         -2.3087832285        2.5963463866       -0.2199785433
 H         -2.1350702418       -2.3527546356        0.1196721361
 H          0.4344833188       -3.0608879810        0.0071953646
 H          3.2652166258       -5.1910400983        1.3193874284
 H          1.6972265916       -4.3869224235        1.3484495635
 H          3.1011410504       -3.5941092069        2.0571062625
 H          3.0899551245       -5.4186291925       -1.2337435442
 H          2.8027629642       -3.9781924583       -2.2143916233
 H          1.5216652762       -4.6182455735       -1.1885241332
 H          5.0568006837       -4.4604846471       -0.1585961229
 H          5.0334586569       -2.8657782522        0.5857433463
 H          4.9140552569       -3.0315742756       -1.1756802793
 H          4.1850657790       -1.0355103052       -0.4181441358
 H          3.0741961912        1.1120044155       -0.5041722802
 H         -0.6946937445        3.0978217285       -1.9986798303
 H         -0.0710384321        5.4767453222       -2.1326207365
 H          1.6191214666        6.4066434913       -0.5895856891
 H          2.6473465833        4.9518092354        1.1243417083
  57
  -77.5802054585000       3.928619751820683E-002 !
 C         -5.6464520064       -1.0366292209       -0.9195388837
 C         -4.7310650880       -1.3856107486        0.2625382993
 C         -4.5572398568       -2.9065832400        0.2942593219
 C         -5.3929014190       -0.9540699227        1.5789270399
 C         -3.4079075514       -0.6500429295        0.1080247807
 C         -3.4151125214        0.7493837804        0.0488905339
 C         -2.2644144036        1.5004071014       -0.0857546933
 C         -1.0565262218        0.8277389529       -0.1726674244
 C         -1.0181506400       -0.5788468750       -0.0939500428
 C         -2.1909962846       -1.3089593754        0.0411768603
 C          0.3679280606       -0.9555651228       -0.1623565312
 C          1.0152314823       -2.1821028884       -0.1605787056
 C          2.3963955566       -2.2351652149       -0.2747173210
 C          3.1383142497       -3.5628505571       -0.2069842535
 C          4.4283785568       -3.5346722733       -1.0369030527
 C          3.4912928010       -3.8201728786        1.2650924667
 C          2.2752144949       -4.7195551577       -0.7266694384
 C          3.1012246162       -1.0326495318       -0.3970839132
 C          2.4815603200        0.2020491891       -0.4062576820
 C          1.1055384426        0.2410083810       -0.2636494600
 N          0.2344653884        1.3180236526       -0.2702274812
 C          0.5885817771        2.6616651075       -0.3410917748
 C         -0.0139471727        3.4992085703       -1.2771973588
 C          0.3380307861        4.8327993722       -1.3585428553
 C          1.3049982718        5.3584223381       -0.5124189657
 C          1.9087584077        4.5482731949        0.4275695953
 C          1.5518669201        3.2022526054        0.5291854568
 C          2.1271313936        2.4264605302        1.5602975293
 N          2.5846810152        1.8442139107        2.4366189317
 H         -5.1729219319       -1.3195907480       -1.8575494167
 H         -6.5894466289       -1.5724137030       -0.8334850896
 H         -5.8629191094        0.0272555158       -0.9547419007
 H         -3.9456821430       -3.2125405631        1.1397066133
 H         -4.1024466052       -3.2672840097       -0.6255062399
 H         -5.5313761360       -3.3807419864        0.3961541059
 H         -4.7382498472       -1.1779196360        2.4186452669
 H         -5.6035181647        0.1115240621        1.5866332529
 H         -6.3305180571       -1.4878100359        1.7196614390
 H         -4.3539120220        1.2773373984        0.1161483217
 H         -2.3137250781        2.5791476938       -0.1076967162
 H         -2.1254379631       -2.3820741103        0.0995622451
 H          0.4232845324       -3.0774585171       -0.0721246734
 H          4.8563816083       -4.5337149939       -1.0854941288
 H          5.1753159438       -2.8815856339       -0.5948496239
 H          4.2235425576       -3.1990424594       -2.0511495598
 H          2.5874972791       -3.8728378394        1.8680859518
 H          4.1106033425       -3.0148976811        1.6533611816
 H          4.0334328798       -4.7579116640        1.3666978285
 H          2.8732721268       -5.6263615714       -0.7871250223
 H          1.8915702818       -4.4944051177       -1.7193659506
 H          1.4391745470       -4.9242269295       -0.0638826959
 H          4.1742169937       -1.0495170464       -0.4898034752
 H          3.0672953813        1.1015695754       -0.5231317619
 H         -0.7465337843        3.0829777441       -1.9525725954
 H         -0.1351949997        5.4650100415       -2.0946088052
 H          1.5834510843        6.3981481861       -0.5853345321
 H          2.6541830069        4.9431999355        1.1023295197
  57
  -77.5800636022000       3.381016997623275E-002 !
 C         -4.5347750773       -2.7764003994        0.7901320206
 C         -4.7123398850       -1.4221564250        0.0920659379
 C         -5.8084982281       -0.6528920757        0.8407190176
 C         -5.1620473232       -1.6591788030       -1.3571206927
 C         -3.4061362064       -0.6406449059        0.0498110836
 C         -3.4143432025        0.7575783546        0.0027114787
 C         -2.2586680513        1.5114823108       -0.0789893484
 C         -1.0472303894        0.8441044212       -0.1350544327
 C         -1.0088828899       -0.5641538741       -0.0832028397
 C         -2.1837200037       -1.2954541021        0.0033380825
 C          0.3792528845       -0.9383075646       -0.1287612130
 C          1.0307289623       -2.1602958951       -0.1500344081
 C          2.4153885265       -2.2077952377       -0.2449106095
 C          3.1076688566       -3.5631849260       -0.2621317721
 C          2.5904732293       -4.3764716313       -1.4574260398
 C          4.6296177251       -3.4540153847       -0.3843932135
 C          2.7873163629       -4.3013007733        1.0452820372
 C          3.1198896570       -1.0050103714       -0.3335508049
 C          2.4948232414        0.2287478242       -0.3133543638
 C          1.1178699461        0.2616390282       -0.1875002177
 N          0.2451439939        1.3376441462       -0.1876073956
 C          0.5995226004        2.6822683607       -0.2331977511
 C          0.0197203614        3.5314797240       -1.1730061988
 C          0.3743191560        4.8656455233       -1.2297658337
 C          1.3210608968        5.3801370222       -0.3544761255
 C          1.9022347405        4.5580830261        0.5895305564
 C          1.5424485952        3.2112591751        0.6660117526
 C          2.0909677521        2.4202768275        1.7001209937
 N          2.5344278631        1.8264973360        2.5761551801
 H         -4.0742055245       -2.6449517267        1.7667592060
 H         -5.5045939246       -3.2496180619        0.9286019774
 H         -3.9228192045       -3.4536487218        0.2008385250
 H         -6.1382360154        0.2201795768        0.2845306728
 H         -5.4516838606       -0.3335666569        1.8173471732
 H         -6.6755121372       -1.2941401307        0.9844392786
 H         -4.4069547560       -2.2219997370       -1.9017848912
 H         -6.0948342556       -2.2187145123       -1.3772765100
 H         -5.3141845128       -0.7111075518       -1.8683691264
 H         -4.3520901933        1.2875319126        0.0341372330
 H         -2.3108266646        2.5902787179       -0.0887112102
 H         -2.1206573374       -2.3700387724        0.0379235960
 H          0.4452207768       -3.0647192525       -0.0993815390
 H          2.7861171933       -3.8447007823       -2.3860727987
 H          1.5213069235       -4.5527464751       -1.3841183930
 H          3.0923987638       -5.3409053329       -1.4990806230
 H          5.0507279537       -2.9048965410        0.4543665868
 H          4.9136274881       -2.9630608001       -1.3123376585
 H          5.0649761615       -4.4513043783       -0.3857968693
 H          3.2813516803       -5.2706865653        1.0608571498
 H          1.7186666668       -4.4608126415        1.1575580610
 H          3.1357139354       -3.7211874336        1.8972573852
 H          4.1926572037       -1.0150183222       -0.4255483429
 H          3.0792145881        1.1324921086       -0.4008889149
 H         -0.6969909680        3.1241736439       -1.8704230294
 H         -0.0828009997        5.5076026286       -1.9676373736
 H          1.5994478876        6.4212158957       -0.4062460210
 H          2.6302041868        4.9449068826        1.2875638191
