  130
       -200.01925282
 C          5.3714512369        1.8977574368        1.5288892413
 C          5.7116249005        0.9878941564        0.5416197195
 C          4.8665473409       -0.0634085285        0.2403614372
 C          3.6631589455       -0.2216559876        0.9242580823
 C          2.7532674575       -1.3415513835        0.6213343574
 C          1.4025452136       -1.0917533847        0.4134748649
 C          0.5071436374       -2.1157076044        0.1288873145
 C         -0.9245055397       -1.7933729389       -0.0062714659
 C         -1.8910543892       -2.4848623599        0.7209356665
 C         -3.2193162699       -2.1141373316        0.6610449495
 C         -3.6152751363       -1.0366313252       -0.1264977407
 C         -4.9916208499       -0.5517404709       -0.0705238411
 N         -6.0755779205       -1.2637763472       -0.2122794395
 C         -7.1139030514       -0.3902460103       -0.0850988489
 C         -8.5061450264       -0.6632769582       -0.1854686972
 C         -8.9742989299       -1.9557647269       -0.4459990018
 C        -10.3205686632       -2.1959374891       -0.5590380421
 C        -11.2187712944       -1.1401516098       -0.4144050605
 C        -10.7701982461        0.1335701426       -0.1545194244
 C         -9.4022007463        0.4195630432       -0.0258737625
 C         -8.9017921373        1.7496385883        0.2754871998
 C         -9.7633821095        2.8358659558        0.4857764432
 C         -9.2934221383        4.0872647260        0.8074172472
 C         -7.9268355125        4.3079417942        0.9503054801
 C         -7.0479402347        3.2735918245        0.7446109655
 C         -7.5068877084        1.9972372791        0.3901302445
 C         -6.6374607667        0.8973487662        0.1549921096
 N         -5.2687776040        0.7830297126        0.1592508295
 C         -4.2378856436        1.7215922987        0.3438556081
 C         -3.3231931454        1.5023005676        1.3689430004
 C         -2.1481549412        2.2210765115        1.4091952503
 C         -1.8635644516        3.1770572168        0.4348926578
 C         -0.5104904766        3.7376268430        0.3522992322
 C          0.0875481833        3.9139186268       -0.8955953928
 C          1.4214826046        4.2450726335       -1.0028673744
 C          2.1997531377        4.3970406754        0.1433179498
 C          3.6365126035        4.6047272518        0.0854893571
 N          4.2944755665        5.3442276664        0.9352891818
 C          5.6078371979        5.2753781635        0.5633145762
 C          6.7349402787        5.8560202177        1.1349552848
 C          7.9579720951        5.5753641737        0.5644562193
 C          8.0728039964        4.7316552740       -0.5425850140
 C          6.9668267319        4.1494380191       -1.1290305601
 C          5.7312383780        4.4430322307       -0.5748872269
 N          4.4513047026        4.0291167954       -0.8707213785
 C          4.1076213835        3.0932591292       -1.8590985161
 C          4.5842872177        3.2501163011       -3.1559639138
 C          4.2710726476        2.3100162584       -4.1215525490
 C          3.4825114155        1.2174312171       -3.8032176460
 C          2.9988053075        1.0682969758       -2.5134415455
 C          3.3079489163        1.9997970325       -1.5414628947
 C          1.5839288872        4.3210091605        1.3919887464
 C          0.2491878936        3.9927051973        1.4941656411
 C         -2.8423101213        3.4706900179       -0.5149609907
 C         -4.0176395439        2.7484744255       -0.5691313340
 C         -2.6600677621       -0.3854572613       -0.9050992750
 C         -1.3327019028       -0.7533415366       -0.8368894876
 C          0.9787150747       -3.4285425818        0.0223692548
 C          0.0485670049       -4.5248133821       -0.3126423475
 C         -0.0700270872       -5.6385586050        0.5128568428
 C         -0.9467356809       -6.6573851672        0.1910159520
 C         -1.7138192903       -6.5791024603       -0.9590763765
 C         -1.6024530352       -5.4740336583       -1.7856668881
 C         -0.7287564758       -4.4524858830       -1.4645377055
 C          2.3367441163       -3.6923437111        0.2250521782
 C          2.8345478974       -5.0800144580        0.1140841844
 C          3.4639796845       -5.6953892037        1.1908711448
 C          3.9222979833       -6.9950128857        1.0835539298
 C          3.7613429424       -7.6943667176       -0.1004442600
 C          3.1377390958       -7.0879812107       -1.1776273491
 C          2.6751990124       -5.7899003957       -1.0714432096
 C          3.2239779106       -2.6574443568        0.5351771363
 C          4.6457645029       -2.9611695682        0.7940077151
 C          5.2247705243       -2.6060438558        2.0084401084
 C          6.5512447409       -2.8981791962        2.2637649306
 C          7.3173608150       -3.5449450890        1.3088048599
 C          6.7499987239       -3.8978830345        0.0960976604
 C          5.4226116942       -3.6101366047       -0.1603399027
 C          3.3169065584        0.7148278625        1.8955081685
 C          4.1666868983        1.7638142702        2.1974287850
 H          6.0390411139        2.7109256075        1.7721520465
 H          6.6420952198        1.0995382957        0.0042579107
 H          5.1327811585       -0.7595504080       -0.5407239374
 H          1.0335776181       -0.0771986731        0.4831841592
 H         -1.5926423335       -3.2998439887        1.3631405797
 H         -3.9613789650       -2.6379051341        1.2440073453
 H         -8.2443021268       -2.7424877692       -0.5575799516
 H        -10.6862528633       -3.1920621269       -0.7605312862
 H        -12.2796564397       -1.3235427383       -0.5070045040
 H        -11.5021513105        0.9189867823       -0.0519364988
 H        -10.8294825860        2.6997839039        0.4011548587
 H         -9.9884177709        4.8997911443        0.9608308027
 H         -7.5598274128        5.2862526775        1.2236815420
 H         -5.9887831945        3.4390160937        0.8702384903
 H         -3.5163975727        0.7273760914        2.0957172834
 H         -1.4152222476        1.9926114615        2.1677381583
 H         -0.4885571440        3.7445631447       -1.7930896474
 H          1.8617162313        4.3727170601       -1.9806636709
 H          6.6414398690        6.4929638985        1.9997696730
 H          8.8538087425        6.0080946014        0.9848261054
 H          9.0531225494        4.5279422970       -0.9475125645
 H          7.0642023509        3.4848470195       -1.9744973375
 H          5.1854026650        4.1120722113       -3.4047676869
 H          4.6426239737        2.4357478585       -5.1277988533
 H          3.2441048942        0.4848954738       -4.5594829922
 H          2.3869715370        0.2163588333       -2.2560264757
 H          2.9366765845        1.8875931076       -0.5356801429
 H          2.1818781397        4.4988607833        2.2717840653
 H         -0.2120330720        3.9275987877        2.4686211489
 H         -2.6687343843        4.2536951661       -1.2378659811
 H         -4.7471310533        2.9425111077       -1.3424327599
 H         -2.9562133454        0.4158412806       -1.5658116731
 H         -0.6013750646       -0.2285217174       -1.4354362576
 H          0.5194637439       -5.6979367482        1.4163732000
 H         -1.0320977865       -7.5156952737        0.8413750046
 H         -2.3977442199       -7.3763711914       -1.2095209769
 H         -2.1992285892       -5.4068740981       -2.6834373021
 H         -0.6383028233       -3.5934575643       -2.1141677955
 H          3.5846882223       -5.1538358889        2.1181497363
 H          4.4066953250       -7.4638629952        1.9276649984
 H          4.1206754532       -8.7094707754       -0.1834235813
 H          3.0103840828       -7.6284912763       -2.1042687595
 H          2.1926581359       -5.3163093370       -1.9144913699
 H          4.6261954879       -2.1066266914        2.7570045145
 H          6.9886181435       -2.6207388481        3.2117791093
 H          8.3538429420       -3.7730843167        1.5090519226
 H          7.3436851823       -4.4006334429       -0.6534584297
 H          4.9844313553       -3.8804606908       -1.1103532914
 H          2.3835149410        0.6056983196        2.4301837989
 H          3.8918921718        2.4780864292        2.9593189291
  130
       -200.01550852
 C          5.8713990996        0.9385838613        0.8948548208
 C          5.9959506043       -0.0298301475       -0.0868533247
 C          5.0436238517       -1.0235113494       -0.2103688089
 C          3.9473038091       -1.0616787336        0.6472342210
 C          2.9020836563       -2.0914749684        0.4987854468
 C          1.5735233768       -1.6968059745        0.4157965136
 C          0.5483414681       -2.6159794413        0.2324227998
 C         -0.8400580951       -2.1282688210        0.1669050284
 C         -1.8534344441       -2.6937580188        0.9380104458
 C         -3.1382293515       -2.1939107873        0.8871909386
 C         -3.4446516220       -1.1073000235        0.0697754386
 C         -4.7974919188       -0.5679544898        0.0743388629
 N         -5.8888167958       -1.2873900631        0.0704250365
 C         -6.9205719455       -0.4005524209        0.0649022188
 C         -8.3147709103       -0.6807434873        0.0302250743
 C         -8.7882879833       -1.9964213718       -0.0109410366
 C        -10.1364945125       -2.2464466544       -0.0663893887
 C        -11.0305365049       -1.1775535232       -0.0842913390
 C        -10.5761975103        0.1197234899       -0.0403999712
 C         -9.2061485983        0.4169520620        0.0237498378
 C         -8.6980600210        1.7756545480        0.1019631359
 C         -9.5566823315        2.8829233451        0.1547736500
 C         -9.0828897009        4.1685252710        0.2685886831
 C         -7.7141512043        4.4052156466        0.3515238726
 C         -6.8382961204        3.3495771419        0.2945882957
 C         -7.3007119086        2.0337035186        0.1513712770
 C         -6.4361695341        0.9065550742        0.0799378753
 N         -5.0665672241        0.7859622272        0.0776783860
 C         -4.0563939368        1.7644021643        0.1151890224
 C         -3.1704043918        1.7700289035        1.1866908288
 C         -2.0769485401        2.6100920864        1.1702666659
 C         -1.8420856281        3.4547687352        0.0867665660
 C         -0.5894315860        4.2184158693        0.0300613504
 C          0.1436897371        4.2685910978       -1.1544798769
 C          1.4039975665        4.8279432447       -1.1812684353
 C          1.9616584005        5.3544725035       -0.0175571055
 C          3.3392489800        5.8232549120        0.0278719657
 N          3.7320365917        6.8970074084        0.6526689307
 C          5.0845257300        6.9753702790        0.4605553902
 C          6.0022818488        7.9183502816        0.9097925960
 C          7.3271228265        7.7295804897        0.5787956852
 C          7.7451418939        6.6268887984       -0.1692829536
 C          6.8509541277        5.6800570782       -0.6276523824
 C          5.5138172050        5.8760140723       -0.3208962047
 N          4.3758645132        5.1482466322       -0.5901336840
 C          4.3059962624        3.9357205894       -1.2939626327
 C          4.9337651384        3.8165018753       -2.5293453941
 C          4.8520805374        2.6270633320       -3.2304610149
 C          4.1295865147        1.5633643062       -2.7179302964
 C          3.4998897249        1.6848207285       -1.4906540389
 C          3.6000331463        2.8576859191       -0.7680308240
 C          1.1933165556        5.3961077216        1.1441467539
 C         -0.0629052504        4.8274102932        1.1682833616
 C         -2.7666856604        3.4795916569       -0.9561747864
 C         -3.8656651749        2.6437507503       -0.9468347974
 C         -2.4402694858       -0.5613616811       -0.7273157699
 C         -1.1563372892       -1.0619157902       -0.6709692989
 C          0.8606340211       -3.9756542917        0.1246562967
 C         -0.2079965700       -4.9687141005       -0.1028151470
 C         -0.3815096102       -6.0413719720        0.7660897424
 C         -1.3850088381       -6.9657281006        0.5442904239
 C         -2.2256400314       -6.8326092984       -0.5478317335
 C         -2.0601231942       -5.7676423688       -1.4170405572
 C         -1.0591055581       -4.8406738790       -1.1962854241
 C          2.1939873129       -4.3868586554        0.2164223454
 C          2.5252861129       -5.8237751411        0.1105473925
 C          3.1884459354       -6.4725536372        1.1469691352
 C          3.4960229352       -7.8164796915        1.0480121374
 C          3.1485125395       -8.5280628465       -0.0877845878
 C          2.4902518924       -7.8889847607       -1.1246336150
 C          2.1783418433       -6.5459096419       -1.0264599501
 C          3.2165814508       -3.4519014765        0.4049543203
 C          4.6187728632       -3.8992802132        0.5198170093
 C          5.3681392864       -3.5637321593        1.6432791510
 C          6.6792132191       -3.9846019813        1.7621125489
 C          7.2603054252       -4.7420173358        0.7591963246
 C          6.5231694222       -5.0761761226       -0.3642411772
 C          5.2107339301       -4.6594830222       -0.4839353170
 C          3.8271253717       -0.0798583947        1.6267381797
 C          4.7850526207        0.9094748576        1.7522501264
 H          6.6166330216        1.7143922791        0.9907114654
 H          6.8384007198       -0.0092482939       -0.7624243540
 H          5.1391188293       -1.7679958051       -0.9867286040
 H          1.3273469689       -0.6468142791        0.4967014263
 H         -1.6261623103       -3.5197416940        1.5950280275
 H         -3.9216166504       -2.6294529353        1.4878371675
 H         -8.0613891063       -2.7937838322       -0.0021069350
 H        -10.5065768190       -3.2606101414       -0.0992660631
 H        -12.0929079904       -1.3690330741       -0.1332828868
 H        -11.3054925629        0.9141382360       -0.0579225560
 H        -10.6240092889        2.7366747647        0.1128206531
 H         -9.7757355258        4.9964688228        0.3050579786
 H         -7.3421844370        5.4129606817        0.4637705669
 H         -5.7781975742        3.5331184462        0.3765405710
 H         -3.3310363992        1.0921498168        2.0118107782
 H         -1.3715877804        2.5812762512        1.9869513087
 H         -0.2606738592        3.8243328843       -2.0520879822
 H          1.9616344539        4.8459004876       -2.1060977045
 H          5.6755683633        8.7593734515        1.4997862286
 H          8.0658788175        8.4442315961        0.9103758930
 H          8.7954771070        6.5119110897       -0.3932368757
 H          7.1818547779        4.8215521997       -1.1931161021
 H          5.4667700519        4.6606969176       -2.9410183362
 H          5.3447761925        2.5379994071       -4.1873561640
 H          4.0570500658        0.6401904200       -3.2722578401
 H          2.9380750425        0.8572105983       -1.0872821442
 H          3.1306848955        2.9437883390        0.2000709398
 H          1.6124798617        5.8536604575        2.0268424117
 H         -0.6445290222        4.8496473563        2.0781821723
 H         -2.6184741916        4.1550851147       -1.7855285865
 H         -4.5675231063        2.6474660642       -1.7685362707
 H         -2.6634354891        0.2463043340       -1.4080848126
 H         -0.3886791165       -0.6323214212       -1.2991333434
 H          0.2663368753       -6.1421349751        1.6249411451
 H         -1.5116438070       -7.7928062220        1.2275617753
 H         -3.0085597990       -7.5561227934       -0.7204119785
 H         -2.7139380605       -5.6579844001       -2.2697609383
 H         -0.9270038238       -4.0134250877       -1.8791761844
 H          3.4543780638       -5.9202388766        2.0369456191
 H          4.0082387346       -8.3105341024        1.8607713226
 H          3.3902536043       -9.5779242998       -0.1645519119
 H          2.2182755496       -8.4387643459       -2.0139275720
 H          1.6694278335       -6.0477710454       -1.8392785503
 H          4.9137534031       -2.9784385444        2.4300328839
 H          7.2493884755       -3.7213956348        2.6411363407
 H          8.2849007903       -5.0705936605        0.8526875749
 H          6.9723484432       -5.6644088722       -1.1512012425
 H          4.6408007994       -4.9151698721       -1.3655633478
 H          2.9826764656       -0.1041392834        2.3014541726
 H          4.6843988208        1.6604952271        2.5227314112
  130
       -200.01532386
 C          5.9728139744        0.6894187890        0.9697274616
 C          6.0689006380       -0.2612807325       -0.0324017066
 C          5.0867181836       -1.2226466902       -0.1774004150
 C          3.9895570279       -1.2456574106        0.6795597615
 C          2.9181604814       -2.2457155068        0.5170733190
 C          1.6001111429       -1.8166050710        0.4407529934
 C          0.5520180682       -2.7085873021        0.2537059324
 C         -0.8244026146       -2.1872407359        0.1957123855
 C         -1.8482817995       -2.7331932141        0.9671548465
 C         -3.1228252447       -2.2087637133        0.9162095714
 C         -3.4091625194       -1.1162563428        0.0986136898
 C         -4.7574650371       -0.5675992366        0.0952833772
 N         -5.8495932454       -1.2862397939        0.1182987391
 C         -6.8806781208       -0.3998024465        0.0939767290
 C         -8.2748856112       -0.6815184466        0.0807252208
 C         -8.7474449254       -1.9981590614        0.0830260919
 C        -10.0959399056       -2.2505392113        0.0523164132
 C        -10.9911007963       -1.1831321567        0.0156307131
 C        -10.5375711373        0.1151550626        0.0159999362
 C         -9.1670354820        0.4150513665        0.0533143889
 C         -8.6584511066        1.7755577431        0.0827031846
 C         -9.5173052707        2.8836350715        0.1072583265
 C         -9.0437272843        4.1725823975        0.1722725919
 C         -7.6745066147        4.4126793303        0.2312012052
 C         -6.7984152366        3.3561566568        0.2017632604
 C         -7.2607245174        2.0356093676        0.1101418310
 C         -6.3958339197        0.9071030473        0.0688330970
 N         -5.0260469190        0.7857657228        0.0610903861
 C         -4.0172326105        1.7668827448        0.0795909581
 C         -3.1502222453        1.8151460869        1.1653114292
 C         -2.0636048758        2.6643499838        1.1406816029
 C         -1.8154690577        3.4728219625        0.0331739101
 C         -0.5752336398        4.2569932320       -0.0251352220
 C          0.1892183192        4.2659186301       -1.1906377767
 C          1.4295045972        4.8683288832       -1.2167105710
 C          1.9339006105        5.4839647260       -0.0725053310
 C          3.2813288809        6.0334578566       -0.0305982270
 N          3.5982750844        7.1590738092        0.5445536769
 C          4.9445396289        7.3155497507        0.3577755602
 C          5.7964512989        8.3344152227        0.7696510608
 C          7.1334929018        8.2159486581        0.4559983474
 C          7.6275721480        7.1106905520       -0.2401048924
 C          6.7998067918        6.0891409747       -0.6609107064
 C          5.4506998408        6.2118017124       -0.3694444997
 N          4.3647138506        5.3997110178       -0.6097934145
 C          4.3824977844        4.1431887955       -1.2355617542
 C          5.0133270216        3.9895186513       -2.4652572281
 C          5.0182332564        2.7528419441       -3.0851273479
 C          4.3814369059        1.6742632255       -2.4959524837
 C          3.7500291382        1.8291325590       -1.2731604167
 C          3.7624041098        3.0527030848       -0.6325541162
 C          1.1366495282        5.5529992415        1.0682022479
 C         -0.0978335132        4.9381480902        1.0932946693
 C         -2.7186598548        3.4517151517       -1.0284757850
 C         -3.8122272305        2.6089838259       -1.0097070460
 C         -2.3932414816       -0.5860303726       -0.6942682697
 C         -1.1190170947       -1.1114174205       -0.6376490498
 C          0.8298865159       -4.0748052485        0.1344141046
 C         -0.2656208906       -5.0383359484       -0.0919160344
 C         -0.4612612076       -6.1105441954        0.7728137194
 C         -1.4927106904       -7.0047628435        0.5558614478
 C         -2.3396895027       -6.8415564826       -0.5272212973
 C         -2.1513713244       -5.7776482377       -1.3930524643
 C         -1.1222654196       -4.8808007957       -1.1771592699
 C          2.1529539122       -4.5200257232        0.2163171550
 C          2.4488469734       -5.9633315583        0.0954348307
 C          3.1066906831       -6.6366408469        1.1195163572
 C          3.3821930944       -7.9863160740        1.0056485191
 C          3.0073569341       -8.6794449126       -0.1328249164
 C          2.3535267273       -8.0161497877       -1.1572366692
 C          2.0740704704       -6.6671776154       -1.0443097731
 C          3.1990033513       -3.6123213301        0.4091399115
 C          4.5905953492       -4.0946906119        0.5114950632
 C          5.3546015112       -3.7911524206        1.6341873469
 C          6.6561516801       -4.2441699042        1.7392089157
 C          7.2130388696       -5.0022152678        0.7231560646
 C          6.4612057940       -5.3048461385       -0.3995542724
 C          5.1582760358       -4.8559592430       -0.5054802128
 C          3.8972837039       -0.2803744112        1.6786965658
 C          4.8845907422        0.6767378910        1.8251523636
 H          6.7416967009        1.4392892542        1.0821751252
 H          6.9127351492       -0.2521129755       -0.7064733233
 H          5.1605800312       -1.9545875931       -0.9680034139
 H          1.3810264797       -0.7613991462        0.5298536084
 H         -1.6371628156       -3.5641556113        1.6232639945
 H         -3.9153113705       -2.6300649666        1.5149386180
 H         -8.0196215925       -2.7943815904        0.1062807557
 H        -10.4654698265       -3.2654272304        0.0537289990
 H        -12.0538391350       -1.3766799769       -0.0125823375
 H        -11.2680646812        0.9080237310       -0.0143467916
 H        -10.5847701828        2.7354797280        0.0813814696
 H         -9.7369488964        5.0008200369        0.1878361932
 H         -7.3022328893        5.4239857990        0.3027769772
 H         -5.7377500687        3.5434487371        0.2641948980
 H         -3.3211881094        1.1643652082        2.0099810054
 H         -1.3742609555        2.6718315181        1.9714520530
 H         -0.1763356102        3.7600067575       -2.0721406746
 H          2.0108492550        4.8560909217       -2.1268967476
 H          5.4116043268        9.1781720785        1.3193425047
 H          7.8225274403        8.9898371501        0.7605132551
 H          8.6849286033        7.0537997537       -0.4523497711
 H          7.1890083611        5.2297851359       -1.1863841006
 H          5.4812265421        4.8416602081       -2.9353780602
 H          5.5124117677        2.6368559651       -4.0382068863
 H          4.3774282196        0.7125515469       -2.9856588595
 H          3.2555672061        0.9897272183       -0.8105337928
 H          3.2902826848        3.1698519110        0.3311871943
 H          1.5151190481        6.0731493097        1.9343857002
 H         -0.7024760999        4.9842552217        1.9871906300
 H         -2.5583507813        4.0981292913       -1.8785287099
 H         -4.4988663444        2.5786076264       -1.8436042507
 H         -2.5990953135        0.2267104903       -1.3742399275
 H         -0.3425245143       -0.6950198092       -1.2638590301
 H          0.1920764302       -6.2346514379        1.6244478441
 H         -1.6359690982       -7.8319514633        1.2357491651
 H         -3.1449671953       -7.5410525390       -0.6957064830
 H         -2.8094997422       -5.6450073095       -2.2391201473
 H         -0.9725644166       -4.0546193294       -1.8576250518
 H          3.3938477773       -6.0990081553        2.0118668352
 H          3.8913270130       -8.4991483508        1.8086492172
 H          3.2247023057       -9.7337091475       -0.2214941504
 H          2.0602945413       -8.5514546850       -2.0486103800
 H          1.5689713414       -6.1500905525       -1.8475838209
 H          4.9193314175       -3.2050693636        2.4310950307
 H          7.2378425246       -4.0052453373        2.6176584861
 H          8.2300981917       -5.3560841899        0.8059125324
 H          6.8911971480       -5.8942408071       -1.1962472095
 H          4.5766539625       -5.0875769643       -1.3861237735
 H          3.0519947348       -0.2941037538        2.3526642407
 H          4.8049100380        1.4153403100        2.6097428315
