  130
       -200.01925282
 C          5.3714512369        1.8977574368        1.5288892413
 C          5.7116249005        0.9878941564        0.5416197195
 C          4.8665473409       -0.0634085285        0.2403614372
 C          3.6631589455       -0.2216559876        0.9242580823
 C          2.7532674575       -1.3415513835        0.6213343574
 C          1.4025452136       -1.0917533847        0.4134748649
 C          0.5071436374       -2.1157076044        0.1288873145
 C         -0.9245055397       -1.7933729389       -0.0062714659
 C         -1.8910543892       -2.4848623599        0.7209356665
 C         -3.2193162699       -2.1141373316        0.6610449495
 C         -3.6152751363       -1.0366313252       -0.1264977407
 C         -4.9916208499       -0.5517404709       -0.0705238411
 N         -6.0755779205       -1.2637763472       -0.2122794395
 C         -7.1139030514       -0.3902460103       -0.0850988489
 C         -8.5061450264       -0.6632769582       -0.1854686972
 C         -8.9742989299       -1.9557647269       -0.4459990018
 C        -10.3205686632       -2.1959374891       -0.5590380421
 C        -11.2187712944       -1.1401516098       -0.4144050605
 C        -10.7701982461        0.1335701426       -0.1545194244
 C         -9.4022007463        0.4195630432       -0.0258737625
 C         -8.9017921373        1.7496385883        0.2754871998
 C         -9.7633821095        2.8358659558        0.4857764432
 C         -9.2934221383        4.0872647260        0.8074172472
 C         -7.9268355125        4.3079417942        0.9503054801
 C         -7.0479402347        3.2735918245        0.7446109655
 C         -7.5068877084        1.9972372791        0.3901302445
 C         -6.6374607667        0.8973487662        0.1549921096
 N         -5.2687776040        0.7830297126        0.1592508295
 C         -4.2378856436        1.7215922987        0.3438556081
 C         -3.3231931454        1.5023005676        1.3689430004
 C         -2.1481549412        2.2210765115        1.4091952503
 C         -1.8635644516        3.1770572168        0.4348926578
 C         -0.5104904766        3.7376268430        0.3522992322
 C          0.0875481833        3.9139186268       -0.8955953928
 C          1.4214826046        4.2450726335       -1.0028673744
 C          2.1997531377        4.3970406754        0.1433179498
 C          3.6365126035        4.6047272518        0.0854893571
 N          4.2944755665        5.3442276664        0.9352891818
 C          5.6078371979        5.2753781635        0.5633145762
 C          6.7349402787        5.8560202177        1.1349552848
 C          7.9579720951        5.5753641737        0.5644562193
 C          8.0728039964        4.7316552740       -0.5425850140
 C          6.9668267319        4.1494380191       -1.1290305601
 C          5.7312383780        4.4430322307       -0.5748872269
 N          4.4513047026        4.0291167954       -0.8707213785
 C          4.1076213835        3.0932591292       -1.8590985161
 C          4.5842872177        3.2501163011       -3.1559639138
 C          4.2710726476        2.3100162584       -4.1215525490
 C          3.4825114155        1.2174312171       -3.8032176460
 C          2.9988053075        1.0682969758       -2.5134415455
 C          3.3079489163        1.9997970325       -1.5414628947
 C          1.5839288872        4.3210091605        1.3919887464
 C          0.2491878936        3.9927051973        1.4941656411
 C         -2.8423101213        3.4706900179       -0.5149609907
 C         -4.0176395439        2.7484744255       -0.5691313340
 C         -2.6600677621       -0.3854572613       -0.9050992750
 C         -1.3327019028       -0.7533415366       -0.8368894876
 C          0.9787150747       -3.4285425818        0.0223692548
 C          0.0485670049       -4.5248133821       -0.3126423475
 C         -0.0700270872       -5.6385586050        0.5128568428
 C         -0.9467356809       -6.6573851672        0.1910159520
 C         -1.7138192903       -6.5791024603       -0.9590763765
 C         -1.6024530352       -5.4740336583       -1.7856668881
 C         -0.7287564758       -4.4524858830       -1.4645377055
 C          2.3367441163       -3.6923437111        0.2250521782
 C          2.8345478974       -5.0800144580        0.1140841844
 C          3.4639796845       -5.6953892037        1.1908711448
 C          3.9222979833       -6.9950128857        1.0835539298
 C          3.7613429424       -7.6943667176       -0.1004442600
 C          3.1377390958       -7.0879812107       -1.1776273491
 C          2.6751990124       -5.7899003957       -1.0714432096
 C          3.2239779106       -2.6574443568        0.5351771363
 C          4.6457645029       -2.9611695682        0.7940077151
 C          5.2247705243       -2.6060438558        2.0084401084
 C          6.5512447409       -2.8981791962        2.2637649306
 C          7.3173608150       -3.5449450890        1.3088048599
 C          6.7499987239       -3.8978830345        0.0960976604
 C          5.4226116942       -3.6101366047       -0.1603399027
 C          3.3169065584        0.7148278625        1.8955081685
 C          4.1666868983        1.7638142702        2.1974287850
 H          6.0390411139        2.7109256075        1.7721520465
 H          6.6420952198        1.0995382957        0.0042579107
 H          5.1327811585       -0.7595504080       -0.5407239374
 H          1.0335776181       -0.0771986731        0.4831841592
 H         -1.5926423335       -3.2998439887        1.3631405797
 H         -3.9613789650       -2.6379051341        1.2440073453
 H         -8.2443021268       -2.7424877692       -0.5575799516
 H        -10.6862528633       -3.1920621269       -0.7605312862
 H        -12.2796564397       -1.3235427383       -0.5070045040
 H        -11.5021513105        0.9189867823       -0.0519364988
 H        -10.8294825860        2.6997839039        0.4011548587
 H         -9.9884177709        4.8997911443        0.9608308027
 H         -7.5598274128        5.2862526775        1.2236815420
 H         -5.9887831945        3.4390160937        0.8702384903
 H         -3.5163975727        0.7273760914        2.0957172834
 H         -1.4152222476        1.9926114615        2.1677381583
 H         -0.4885571440        3.7445631447       -1.7930896474
 H          1.8617162313        4.3727170601       -1.9806636709
 H          6.6414398690        6.4929638985        1.9997696730
 H          8.8538087425        6.0080946014        0.9848261054
 H          9.0531225494        4.5279422970       -0.9475125645
 H          7.0642023509        3.4848470195       -1.9744973375
 H          5.1854026650        4.1120722113       -3.4047676869
 H          4.6426239737        2.4357478585       -5.1277988533
 H          3.2441048942        0.4848954738       -4.5594829922
 H          2.3869715370        0.2163588333       -2.2560264757
 H          2.9366765845        1.8875931076       -0.5356801429
 H          2.1818781397        4.4988607833        2.2717840653
 H         -0.2120330720        3.9275987877        2.4686211489
 H         -2.6687343843        4.2536951661       -1.2378659811
 H         -4.7471310533        2.9425111077       -1.3424327599
 H         -2.9562133454        0.4158412806       -1.5658116731
 H         -0.6013750646       -0.2285217174       -1.4354362576
 H          0.5194637439       -5.6979367482        1.4163732000
 H         -1.0320977865       -7.5156952737        0.8413750046
 H         -2.3977442199       -7.3763711914       -1.2095209769
 H         -2.1992285892       -5.4068740981       -2.6834373021
 H         -0.6383028233       -3.5934575643       -2.1141677955
 H          3.5846882223       -5.1538358889        2.1181497363
 H          4.4066953250       -7.4638629952        1.9276649984
 H          4.1206754532       -8.7094707754       -0.1834235813
 H          3.0103840828       -7.6284912763       -2.1042687595
 H          2.1926581359       -5.3163093370       -1.9144913699
 H          4.6261954879       -2.1066266914        2.7570045145
 H          6.9886181435       -2.6207388481        3.2117791093
 H          8.3538429420       -3.7730843167        1.5090519226
 H          7.3436851823       -4.4006334429       -0.6534584297
 H          4.9844313553       -3.8804606908       -1.1103532914
 H          2.3835149410        0.6056983196        2.4301837989
 H          3.8918921718        2.4780864292        2.9593189291
