87
 energy: -116.922416142031 gnorm: 0.000026997269 xtb: 6.7.1 (edcfbbe)
C           -4.93316867573757       -3.52268374390105        1.32658685514532
C           -4.37579204486128       -3.52272039323586       -0.09876418424448
C           -2.95452595194845       -3.06323520734403       -0.12732494598614
C           -1.81298014817883       -3.84991701533013       -0.14664167084428
C           -1.73615293400063       -5.33820510022740       -0.25130646092219
C           -1.49625875261876       -5.78334272190768       -1.69582309664206
C           -0.71392986539270       -2.96290435450244       -0.13660086252780
C            0.64243029563342       -3.37042538816581       -0.12372395768474
C            1.73764296461487       -2.58082020834710       -0.17901695868379
N            1.70311635342640       -1.15577310647866       -0.41333772928370
C            3.03532519608279       -0.69929976097727       -0.09055277822858
C            3.37893629400199        0.59944995830643        0.05447493863217
C            2.51546332920808        1.72267414994228        0.05718921522691
N            1.15056983897248        1.67116469243183        0.06850767875895
C            0.71214412239466        2.96359557906602        0.13126121072958
C           -0.64433436453259        3.37081301239145        0.11673559086361
C           -1.73924249035210        2.58127212712859        0.17812138458530
N           -1.70376331356088        1.15710464023609        0.41801585727686
C           -3.03720627272526        0.69938449729935        0.10218429821300
C           -3.38081713224689       -0.59960594829513       -0.04078834689017
C           -2.51711859292238       -1.72256736761275       -0.05025593185834
N           -1.15225171705029       -1.67084264563338       -0.06561203180309
C           -3.87751204319117        1.85168224969480       -0.11072429757297
C           -5.34719500770421        1.76230448542497       -0.35818811842849
C           -6.10848280957351        1.50222274101119        0.94412910656608
C           -3.10751826000987        2.97111310383168       -0.05524635465968
C           -3.53217369867110        4.38267445158322       -0.29464595705922
C           -3.34486102624404        4.77264319476038       -1.76292828576681
C            1.81123071203016        3.85057803014363        0.13896704407317
C            1.73464543555779        5.33963636117981        0.23239779399055
C            1.49632705112755        5.79644681307204        1.67350130618959
C            2.95275932671087        3.06364528137681        0.12824221400550
C            4.37430211087334        3.52246260277525        0.10250735890781
C            4.93903805110963        3.50982547494471       -1.31987158646236
C            3.87441750866495       -1.85234984598547        0.12283542125302
C            5.34277739283086       -1.76390919936037        0.37842538571664
C            6.11122297445260       -1.49847059970007       -0.91859567981082
C            3.10485025625219       -2.97162588798748        0.05872720454144
C            3.52838671492204       -4.38416438634757        0.29430240329255
C            3.33514930675016       -4.77979759989524        1.76029951897495
Pt          -0.00084451993226        0.00002728843552        0.00204248089261
H           -5.96780895547125       -3.86024282411708        1.33520332890876
H           -4.88938131584249       -2.52205429142011        1.75137580149947
H           -4.34619891334211       -4.18505333756123        1.95914932447151
H           -4.43941598237257       -4.53187036519142       -0.50967462068156
H           -4.99161567248756       -2.87447479924572       -0.72798046773176
H           -0.93031315728298       -5.71747520110645        0.38283552797266
H           -2.66857782998443       -5.77591814874012        0.10976944800683
H           -2.30332205134336       -5.43257218795567       -2.33535210362459
H           -0.56256045513709       -5.36930739622647       -2.07051305743365
H           -1.44781438452821       -6.86868136753866       -1.76090139107349
H            0.80611767915348       -4.42995487634815       -0.00189837611230
H            1.53412609989365       -0.99215605773253       -1.41952651024567
H            4.41878590849517        0.81558407241747        0.24390099468620
H           -0.80838897292704        4.42973986182275       -0.00966101619245
H           -1.53110450064102        0.99772154164086        1.42428353914067
H           -4.42159285171743       -0.81598148708484       -0.22481934576812
H           -5.54969715667221        0.95457874278124       -1.06478459669275
H           -5.70299582413576        2.69141586822951       -0.80485369030928
H           -7.17648393506093        1.43042148635345        0.75194677778514
H           -5.93730901731418        2.31283158464416        1.64921582433274
H           -5.77495922845823        0.57461379229190        1.40297199104935
H           -2.94575770618279        5.05324089779368        0.33710886318744
H           -4.58179736554379        4.50061627782009       -0.01993421411227
H           -3.94733781189109        4.13197996483459       -2.40273044459194
H           -3.64445637733767        5.80589791445555       -1.92324436982109
H           -2.30364850717725        4.66065643176179       -2.05486845714934
H            2.66677194897175        5.77432585635822       -0.13314077534241
H            0.92823666100592        5.71394774038222       -0.40394333833612
H            0.56321202499791        5.38516335878950        2.05263991362162
H            2.30427500149903        5.45127789536296        2.31495591203256
H            1.44753035607715        6.88227262970062        1.72966793867639
H            4.98666704512886        2.87948689003081        0.74048891266829
H            4.43620213328777        4.53513629466929        0.50490148904046
H            4.89765192744113        2.50545297057556       -1.73596962794907
H            4.35524237242659        4.16639598995377       -1.96134489017980
H            5.97365382468472        3.84753112466450       -1.32611583192203
H            5.69617710801959       -2.69487350328158        0.82314117123681
H            5.54138035204427       -0.95909716105483        1.08944624398531
H            7.17811564753776       -1.42710287298434       -0.72016058992088
H            5.94423969704539       -2.30634679411893       -1.62780041672909
H            5.77998426455461       -0.56918031499848       -1.37567032309243
H            2.94438212721330       -5.05215938957584       -0.34238791564492
H            4.57907304762486       -4.50120995941867        0.02329624183676
H            3.93472621128044       -4.14135500549297        2.40502441998033
H            3.63444375255267       -5.81355235917441        1.91793609217062
H            2.29269525459769       -4.66926085903695        2.04832907776424
