87
 energy: -116.902164486740 gnorm: 0.000144800924 xtb: 6.7.1 (edcfbbe)
C           -4.88393082925060       -3.57607168031265        1.40459528127810
C           -4.36665716731894       -3.55979908632373       -0.03577159250046
C           -2.94726551457812       -3.10039796395686       -0.09592417154826
C           -1.81742931026043       -3.86936568966342       -0.18082058247566
C           -1.72716097680699       -5.35348764870479       -0.31712042891017
C           -1.51657647698276       -5.76433760395106       -1.77635532771090
C           -0.70041427128136       -2.96986879987955       -0.17925092560065
C            0.62812462097354       -3.38065729442006       -0.21171255011709
C            1.75081345356182       -2.57346939031278       -0.18931064262304
N            1.70504638579056       -1.14839990157204       -0.38380351982555
C            3.03980296206836       -0.68930413262246       -0.10248375930274
C            3.38358492236466        0.64899375275692       -0.03869678247639
C            2.51564429921993        1.73516535878733        0.01102881607854
N            1.14797770472939        1.68028713532417        0.06661887899970
C            0.69935163134930        2.96998509417018        0.17825107777011
C           -0.62922584205769        3.38070859063465        0.21069388937872
C           -1.75188764613492        2.57347475756924        0.19087125428502
N           -1.70572232719776        1.14851216769539        0.38630367323698
C           -3.04092871720580        0.68915600693830        0.10747325237658
C           -3.38452877382582       -0.64918659206380        0.04348243154626
C           -2.51656508408775       -1.73524834800046       -0.00872419065281
N           -1.14892349872564       -1.68031765473295       -0.06513055716664
C           -3.86464361357433        1.80256147674407       -0.12767175994367
C           -5.33099802296067        1.73463470609254       -0.40263601523874
C           -6.13059180279633        1.63173255595843        0.89908539722870
C           -3.08014596063150        2.95429854232436       -0.06322357502746
C           -3.52810950599922        4.35456656350214       -0.32479453241101
C           -3.29855612912264        4.74283029792107       -1.78767116253611
C            1.81629447783712        3.86957186824914        0.17844356816183
C            1.72587183156263        5.35401236646484        0.31123762699433
C            1.51530656990343        5.76842220370951        1.76946633134998
C            2.94622134607123        3.10048799077315        0.09588766981335
C            4.36563976818904        3.55976286448018        0.03578836807918
C            4.88426417496717        3.57232293120069       -1.40412683761640
C            3.86291391541342       -1.80283816279925        0.13403176832140
C            5.32860459545845       -1.73516484859919        0.41258666328994
C            6.13152760709223       -1.63287507872529       -0.88712729572870
C            3.07850552997296       -2.95451457925470        0.06724879198366
C            3.52576332406072       -4.35498853070957        0.32894457035275
C            3.29189746783829       -4.74456174535647        1.79078872343328
Pt          -0.00050173703601        0.00000164531071        0.00069318708879
H           -5.91883496508672       -3.91077120306906        1.43610065390402
H           -4.82558459328572       -2.58144211407241        1.84085960154912
H           -4.28235687443900       -4.24890436108359        2.01188996913181
H           -4.44205332839160       -4.56383411659409       -0.45690107585255
H           -4.99662583364773       -2.90240769361724       -0.64023581699778
H           -0.90185662077805       -5.73395131503509        0.28991092172198
H           -2.64579514852287       -5.80931370909987        0.05646335624037
H           -2.34529139712923       -5.41437220121947       -2.38802815000501
H           -0.59937054644608       -5.32812665977321       -2.16559408365426
H           -1.45283735946465       -6.84708639952068       -1.86390196650051
H            0.80464826534866       -4.44377285532553       -0.17599971496463
H            1.49734938395839       -0.96033521505401       -1.38002016927192
H            4.43451706216941        0.86845042030844        0.05788685428244
H           -0.80584111104359        4.44375530589530        0.17347787269686
H           -1.49662181227505        0.96122486437438        1.38239766192591
H           -4.43555990761861       -0.86871432259325       -0.05171735662299
H           -5.54619497435263        0.86673009171195       -1.02925678424555
H           -5.64509766060483        2.62502750909816       -0.94888495188627
H           -7.19663474996524        1.58290104646420        0.68880854164193
H           -5.94072878051223        2.49810884016722        1.52901923985893
H           -5.84404425872625        0.73964582348455        1.45114295831308
H           -2.97782637648153        5.04233311494091        0.32136484530197
H           -4.58855907895586        4.45121527758230       -0.08594059036574
H           -3.85730591720876        4.08152382844168       -2.44594031494564
H           -3.62121023260507        5.76623935395309       -1.96617322156681
H           -2.24378744503194        4.65887261182356       -2.03781961424079
H            2.64445279541913        5.80901146604034       -0.06349358696305
H            0.90051741672865        5.73292677731451       -0.29669775409572
H            0.59816512991778        5.33307770404888        2.15983242713215
H            2.34408885202282        5.42006214999037        2.38196204797601
H            1.45144942177020        6.85137844178359        1.85433853574461
H            4.99504139176798        2.90391936907282        0.64252947193767
H            4.44064345990757        4.56488613488521        0.45438796643353
H            4.82634214392497        2.57657378057221       -1.83788181371883
H            4.28327588593621        4.24358639724180       -2.01373456387437
H            5.91919857244794        3.90694788606835       -1.43549830425882
H            5.64111329049863       -2.62546090209935        0.95992451978810
H            5.54241605062052       -0.86710584847937        1.03946768400060
H            7.19704289617901       -1.58425789168277       -0.67413273780536
H            5.94305422090353       -2.49939275449183       -1.51728343426019
H            5.84664001392418       -0.74088057343539       -1.44019335011719
H            2.97739429744785       -5.04220155661520       -0.31943811079599
H            4.58691212826252       -4.45141522594459        0.09314396637458
H            3.84873015183045       -4.08387455689957        2.45129896416678
H            3.61399367813550       -5.76814465857426        1.96931324405924
H            2.23639742285703       -4.66079683077093        2.03789889143702
