87
 energy: -116.902221745483 gnorm: 0.000065710481 xtb: 6.7.1 (edcfbbe)
C           -5.23891998099720       -2.95509102103764       -1.58975542362956
C           -5.04879737035666       -2.50603106247183       -0.13898256439208
C           -4.04637393156748       -1.40385162790415       -0.04075484641277
C           -4.28251882647414       -0.05728208728004        0.04194328462029
C           -5.60005847396359        0.63807557469415        0.14113101039382
C           -5.92986426387743        0.99698028707003        1.59198302123870
C           -3.00290169410255        0.58789941812821        0.08645189308408
C           -2.82855341229661        1.96741277866400        0.14172296647373
C           -1.62845114692107        2.65237924664707        0.19811024105296
N           -0.36565470262949        2.00927012277499        0.44909803885835
C            0.62138257346960        3.04187673856651        0.27830252773049
C            1.98359671425166        2.79929006256611        0.27677503802485
C            2.61369372889172        1.56463173315044        0.16254964122221
N            1.99928052548924        0.35055116130103        0.00030418399078
C            2.99020728439297       -0.58202976164594       -0.16141631413814
C            2.81785754163546       -1.95737900598424       -0.27618243985516
C            1.61950809799210       -2.64905647562591       -0.27834462661050
N            0.33997094505330       -2.01395600016822       -0.44915824666351
C           -0.62861159952196       -3.04855908010292       -0.19859237215268
C           -1.99018140318561       -2.81288081231356       -0.14192661504444
C           -2.62358626431022       -1.57504946049866       -0.08610136702409
N           -2.01077462447782       -0.35282947524807        0.00000569511426
C            0.04708570188546       -4.26347375173665        0.00406700724726
C           -0.61797983211099       -5.57819534033970        0.24809509904032
C           -1.03458352787221       -6.23710791422664       -1.06975282363983
C            1.41970746120352       -4.02221145163233       -0.06102695743616
C            2.51255964843740       -5.01274685623997        0.17240752931411
C            2.97089350835950       -4.99340828686388        1.63286980855042
C            4.27026534501271        0.06193592420914       -0.10281989629279
C            5.59137340022259       -0.62545693303652       -0.21718907333002
C            6.03943073751879       -1.19141438471538        1.13285221083542
C            4.03652628071024        1.39457303045064        0.10496302670872
C            5.04492663585855        2.49034567187060        0.22040085376967
C            5.27531623867926        3.17486709731589       -1.12941993764108
C           -0.03377200560275        4.26497238441352        0.06037432472801
C            0.65667649013806        5.56829764928792       -0.17326130004505
C            1.09342087806363        5.70627618505592       -1.63394707298251
C           -1.40653825990577        4.02464224872689       -0.00502638594782
C           -2.47931547246563        5.03434283409731       -0.25000255043880
C           -3.09671589263360        5.51205835652990        1.06720596838574
Pt          -0.00438385646228       -0.00087363005133        0.00000911526979
H           -5.58612482256322       -2.12264098895080       -2.19793686046125
H           -5.97066685968413       -3.75823812971214       -1.64930996835487
H           -4.29785922304951       -3.30915841379324       -2.00461024842793
H           -6.00525379290279       -2.16433392870395        0.26054544010113
H           -4.72609435194813       -3.35761778921721        0.46517440070376
H           -5.58712570012084        1.54808691930823       -0.46390005164318
H           -6.38365604809151       -0.00906082323472       -0.25682059427385
H           -5.97239796320432        0.09662519381463        2.20104795508557
H           -5.16488008900277        1.65044622761344        2.00530182445312
H           -6.89111539163698        1.50334492327157        1.65227394002131
H           -3.72028794225105        2.56864502669393        0.06930200638638
H           -0.34655246805993        1.69860513361949        1.43603467172837
H            2.62211182191897        3.66793552510411        0.27758915360142
H            3.71384890958784       -2.55691431897583       -0.27694174676474
H            0.25234957638706       -1.71528445640040       -1.43609712687765
H           -2.62407714710253       -3.68171547677230       -0.06969873656075
H           -1.50029252100533       -5.43145535664637        0.87434484045172
H            0.06277774053039       -6.24177274533525        0.78309826209523
H           -1.72817544394629       -5.59790905665550       -1.61109760772416
H           -1.51755003203696       -7.19338858981918       -0.88182710891921
H           -0.16406398990890       -6.40611271573537       -1.69991635011052
H            3.36154576860125       -4.78096516115571       -0.47477825283559
H            2.16232126922615       -6.01381141872151       -0.08453617424233
H            2.14417677511891       -5.24882383840937        2.29174772219074
H            3.77588991164391       -5.70788990876047        1.79027453390853
H            3.32495864459117       -4.00139716067504        1.90251267319935
H            5.52802382696116       -1.43437014785017       -0.94870520517666
H            6.34027377129833        0.08378890353950       -0.57468551320569
H            5.30985049274690       -1.90482549169616        1.50901918499543
H            7.00037650186337       -1.69298760847020        1.03753703959209
H            6.13608226110095       -0.39079034367540        1.86284907303450
H            5.99001046822308        2.07812042105260        0.57897336882899
H            4.70939709684414        3.22950624601580        0.95151344862098
H            6.00833181979260        3.97332179107165       -1.03332567262920
H            5.63924808926433        2.45479825424494       -1.85900455923046
H            4.34702954419658        3.59766561569973       -1.50659323847140
H            1.53423456143124        5.63915560260045        0.47342735636820
H           -0.01316918767356        6.39040150177283        0.08419166517765
H            0.22875465574258        5.66522636577216       -2.29234408005058
H            1.60716176108134        6.65207004906592       -1.79151344809157
H            1.76377275278122        4.89398057138191       -1.90406951788653
H           -2.06470029399033        5.89007247821116       -0.78461822331485
H           -3.25833136782852        4.59590260759140       -0.87699241531619
H           -3.53168541259046        4.67492057990489        1.60822217603985
H           -3.87631203685935        6.24666534043965        0.87843510430309
H           -2.33642354900828        5.96750945018531        1.69806927947398
