87
 energy: -116.921985047657 gnorm: 0.000054221558 xtb: 6.7.1 (edcfbbe)
C           -2.72778633843462        5.52001213406785        1.53418247500162
C           -2.72747098213177        4.93911102445902        0.11829288222886
C           -2.51043968723829        3.46107743913908        0.13602174479705
C           -3.47585288308694        2.46673722420389        0.09364223322534
C           -4.94941246980532        2.63494310161563       -0.08563738720681
C           -5.36220331192227        2.41356629502812       -1.54266936394142
C           -2.78775648642434        1.23553074720732        0.16270212706930
C           -3.41835730829767       -0.03291123838780        0.18937465211102
C           -2.82137260174228       -1.24502678734523        0.17067080542751
N           -1.40663110346450       -1.44854346761490       -0.03593844959516
C           -1.18421063441406       -2.83735760405437        0.29120676045078
C            0.03758495320686       -3.39357663643744        0.44602150559319
C            1.28757664158442       -2.72726198874145        0.47581988633849
N            1.46027842001632       -1.37340739451329        0.53032073301648
C            2.80464378186525       -1.15625617148812        0.64049294553634
C            3.43056040530721        0.11420699548926        0.67733167287459
C            2.83178995583814        1.32530887044569        0.71421241811378
N            1.41146023321904        1.52610679436007        0.88276022018361
C            1.19718917107984        2.91697942341448        0.55781347129750
C           -0.01834350278162        3.47221915221612        0.35694529624106
C           -1.26725324912143        2.80752374225270        0.28576628878524
N           -1.44468807621640        1.45290582763516        0.28580373780608
C            2.48174224400705        3.55684123369295        0.41593046936714
C            2.64108184346803        5.01381852286981        0.13226659362102
C            2.45699944346950        5.32231790738672       -1.35551952975264
C            3.45442108919347        2.60997593232452        0.51055262126930
C            4.92837895882828        2.78675694580804        0.35272172413041
C            5.38463427510233        2.47191668578992       -1.07390347269584
C            3.49882092516627       -2.38676593262250        0.63921856563558
C            4.98118321548397       -2.55564575042023        0.72012613112983
C            5.62908506468421       -2.47394481045849       -0.66419712916475
C            2.53683129141295       -3.38175497977978        0.55438484791221
C            2.74938076377130       -4.85768563257018        0.47130382212406
C            2.59020667492464       -5.36830030289891       -0.96264626298244
C           -2.46415216805658       -3.47280566427743        0.48765382298930
C           -2.61757094848234       -4.93628394791838        0.73724961329844
C           -2.49200889603343       -5.73251806317476       -0.56389511660748
C           -3.43759850894593       -2.52588627925483        0.41645478749082
C           -4.91146127655842       -2.70518343327370        0.56862091181226
C           -5.60959152610394       -2.70023963427534       -0.79350003552522
Pt           0.00585089245625        0.03843556014672        0.41748656332210
H           -3.51680397478496        5.06263777730451        2.12715534865316
H           -2.89132820531623        6.59571990355156        1.50843039943650
H           -1.77725627032644        5.32326524555314        2.02548863959980
H           -3.68319014013104        5.15936779700280       -0.36087347628059
H           -1.94656788648824        5.42547492573622       -0.47237682484131
H           -5.48725043072668        1.92956140239096        0.55364189130388
H           -5.24031163039542        3.64095960566810        0.22170380575390
H           -5.09216131081402        1.41032558209606       -1.86548331419643
H           -6.43645162078611        2.54098309149414       -1.66199561779670
H           -4.85384292492045        3.12567356528167       -2.18912112954800
H           -4.49205629178628       -0.01294801584945        0.29260608041011
H           -1.19621564748242       -1.30792367235737       -1.03766270153173
H            0.07649340335572       -4.45583649777813        0.63048936155550
H            4.50693982954032        0.10180573650122        0.61027455119831
H            1.17822169304897        1.38342652819024        1.87948674448595
H           -0.05008254875474        4.53622742798847        0.18143465842732
H            3.63486840087514        5.34012582587190        0.44462914619945
H            1.90620706792894        5.57847956036102        0.71107262616682
H            2.54699075815666        6.39143851094862       -1.53439254489798
H            1.47883799318982        4.99123518583965       -1.69507495307507
H            3.21214274768875        4.80837008144750       -1.94483973534828
H            5.44948382337208        2.12796923580061        1.05148315259703
H            5.20113378203420        3.81533223661269        0.59618033320894
H            6.46413257761978        2.57526860828651       -1.15787178043149
H            5.10783615050741        1.45683576350054       -1.34698514663564
H            4.91584197438489        3.15235815351173       -1.78024013506754
H            5.40983446413131       -1.78699179598992        1.36788640650729
H            5.21488256323690       -3.52511294280061        1.16560871157817
H            5.40424115475227       -1.51938503354959       -1.13513845314341
H            6.70966925400874       -2.57994517829124       -0.58945445146364
H            5.24754888309365       -3.26516613337593       -1.30513722428742
H            2.03635509042256       -5.37595864288541        1.11905438237787
H            3.75256883484507       -5.10075365824998        0.82623161254778
H            2.75142541229315       -6.44370449680890       -1.00735281120807
H            1.59228218307476       -5.14938260174050       -1.33644410584091
H            3.31007557432169       -4.88284520304326       -1.61768341468896
H           -3.59190093588868       -5.13526302964374        1.18592016479635
H           -1.85195021024782       -5.26887493230705        1.44144375359120
H           -3.26739605384439       -5.43383566896647       -1.26574785856258
H           -1.52451706285471       -5.55576344059896       -1.02772114853434
H           -2.59446396340832       -6.79742421750355       -0.36864831375541
H           -5.11943909521850       -3.64943178517954        1.07395596401946
H           -5.31551248377627       -1.90030277360541        1.18633833610185
H           -6.68335319737789       -2.82056960554003       -0.67019028191843
H           -5.23922974035163       -3.51576628773425       -1.41057290703346
H           -5.42226827506592       -1.76459597725456       -1.31495232317986
