  85
       -134.46584507
 O          7.6576861922       -1.6754698080        1.5148775883
 P          7.1936427472       -0.6377622987        0.5810773247
 C          7.6234603366        1.0525607529        1.1026915182
 C          7.1443219390        2.1726388876        0.4346827582
 C          7.4828320302        3.4351026934        0.8844608796
 C          8.2948089827        3.5820218984        1.9992941988
 C          8.7693421615        2.4655786048        2.6678453406
 C          8.4314928928        1.2004059289        2.2201140674
 C          7.8619718029       -0.8357278154       -1.1064896239
 C          7.4234273498       -1.9375182817       -1.8295738453
 C          7.9309030795       -2.1848001404       -3.0914634383
 C          8.8825082578       -1.3325383732       -3.6304522901
 C          9.3285765032       -0.2399681481       -2.9055461155
 C          8.8209705025        0.0101149533       -1.6415191585
 C          5.3891613570       -0.5926617360        0.3691226433
 C          4.7660132838       -0.1419321415       -0.7898657459
 C          3.3911388867       -0.0740487477       -0.8531676473
 C          2.5976791764       -0.4588550926        0.2360865120
 C          1.1455552112       -0.3787245812        0.1694571493
 C          0.3542350842       -1.5290774895        0.4721901357
 C          0.9363979320       -2.7723683177        0.7373779880
 C          0.1698764304       -3.8653569393        1.1326380362
 C         -1.1935570558       -3.7262908139        1.2806556885
 C         -1.8052603725       -2.5169692884        0.9597552034
 C         -1.0688686177       -1.4263075160        0.4885365918
 C         -1.6992341131       -0.2148379783        0.0641521380
 C         -3.1486900649       -0.1240989396        0.0255202873
 C         -3.8250165175        0.9332798612        0.6509959586
 C         -5.1986194513        1.0145493181        0.6332261966
 C         -5.9492729549        0.0442902741       -0.0288844681
 N         -7.3458210050        0.1313008277       -0.0506717509
 C         -8.2412011789       -0.9127700509        0.0623495185
 C         -8.0535085553       -2.2590486869        0.3380173526
 C         -9.1945861866       -3.0398715171        0.4177142104
 C        -10.4513049698       -2.4626330056        0.2361386128
 N        -10.6501915993       -1.1782825464        0.0112014996
 C         -9.5686564703       -0.4183121029       -0.0673699388
 C         -9.4559485523        0.9973385042       -0.2609919527
 C        -10.3417911073        2.0463166614       -0.4560944019
 C         -9.7976272779        3.3111328576       -0.6076355566
 C         -8.4153719292        3.4778996411       -0.5634468312
 N         -7.5474128260        2.4965595964       -0.3794657643
 C         -8.0683966006        1.2899844013       -0.2302076323
 C         -5.2927726344       -0.9982529694       -0.6823155415
 C         -3.9190163429       -1.0851725799       -0.6432795063
 C         -0.9041201865        0.9117010863       -0.3156772855
 C         -1.4757873817        2.0742157611       -0.8406805811
 C         -0.7080934762        3.2037934516       -1.1135740635
 C          0.6470075151        3.1894401600       -0.8607754365
 C          1.2531166599        2.0201698787       -0.4092328499
 C          0.5162043546        0.8517532252       -0.1922563745
 C          3.2395545045       -0.9224021792        1.3922170206
 C          4.6143508906       -0.9800449651        1.4567423924
 H          6.5099066286        2.0491151420       -0.4312212399
 H          7.1130483997        4.3084088224        0.3671043932
 H          8.5548926777        4.5706833956        2.3477790314
 H          9.3994692521        2.5810870764        3.5372865491
 H          8.7833705808        0.3116546247        2.7235506123
 H          6.6843762653       -2.5924739129       -1.3866629490
 H          7.5879549744       -3.0402339525       -3.6548573405
 H          9.2802276790       -1.5236803649       -4.6162432288
 H         10.0749508564        0.4192372929       -3.3246774062
 H          9.1661115928        0.8604112552       -1.0696957084
 H          5.3624848521        0.1370815014       -1.6473360433
 H          2.9085219584        0.2477238768       -1.7647600331
 H          2.0031049508       -2.8919357114        0.6314025379
 H          0.6526075540       -4.8089861021        1.3372460705
 H         -1.7951990897       -4.5516005671        1.6307207041
 H         -2.8720090878       -2.4207529058        1.0882207554
 H         -3.2541367327        1.6705192463        1.1955419211
 H         -5.7059962483        1.8266790600        1.1276651341
 H         -7.0731904675       -2.6811155850        0.5026231481
 H         -9.1156503084       -4.0947294038        0.6292292291
 H        -11.3460052490       -3.0672489960        0.2905320302
 H        -11.4059662717        1.8710106738       -0.4875675394
 H        -10.4330352536        4.1688138489       -0.7614291191
 H         -7.9732181143        4.4576839782       -0.6827445782
 H         -5.8622236396       -1.7201395920       -1.2481347941
 H         -3.4191097333       -1.8778536897       -1.1802801622
 H         -2.5343131735        2.0999411651       -1.0469154274
 H         -1.1850961690        4.0891049584       -1.5057181527
 H          1.2470195054        4.0717953080       -1.0249654661
 H          2.3147503948        2.0204944958       -0.2174225036
 H          2.6434243364       -1.1997967674        2.2492045873
 H          5.1150828243       -1.3300220325        2.3483388884
