126
 energy: -186.613058939704 gnorm: 0.000054933395 xtb: 6.7.1 (edcfbbe)
C           -5.16281474701593       -9.56119267768549       -0.29637097832634
C           -5.64722184126896       -8.12971579365899        0.00203785792231
C           -7.15553012861651       -8.13150069107737        0.31464229769117
C           -4.90238077484884       -7.60519436332191        1.21529130915900
C           -5.01936964287130       -8.27314845405402        2.42723012301437
C           -4.38949624882013       -7.83032361802772        3.57569308458206
C           -3.62991035822036       -6.67534816476490        3.52591777850019
C           -3.49688526919902       -5.99206524332627        2.33510544699427
C           -4.10948620294097       -6.45362677959157        1.16591216460106
N           -3.95024824373550       -5.74831930069265       -0.02006058004209
C           -3.14372472866220       -4.58244871960952       -0.02733682652475
C           -1.75638915588401       -4.69023614897056        0.03897419040852
C           -0.97331852027993       -3.55454520122458        0.03411348537039
C           -1.56395412323023       -2.29262270440694       -0.03342567424102
C           -0.73454791706568       -1.08856389425331       -0.03118488776759
N            0.58751192556203       -1.24046264761384       -0.02812798323114
C            1.30300228517350       -0.11823668486737       -0.02834389690983
C            2.76024252819195       -0.23334376337455       -0.02305409180748
C            3.55553899425187        0.91225260949982        0.01286450658767
C            4.93046128450264        0.80459358603657        0.02352150087961
C            5.53383242968370       -0.45109115235553       -0.00350418470360
N            6.94683753406925       -0.55785358512082        0.00898875909838
C            7.61047828217983       -0.93542132161860       -1.15179665338388
C            6.88100998067590       -1.19337344594767       -2.31655409897336
C            7.51200853160961       -1.57506431248938       -3.48222517332777
C            8.88960702778000       -1.69734896439060       -3.51132540221207
C            9.61532556191388       -1.41586271023946       -2.36869041775340
C            9.00602910514960       -1.02970296686370       -1.18193702038671
C            9.86790417414200       -0.70055856508155        0.02251232432219
C           10.79548112397565        0.47310910642723       -0.34493960569188
C           10.70024342895519       -1.94265249776073        0.39302111726882
C            9.03094855873235       -0.30466247157570        1.22419734622010
C            9.66233570313178        0.01210603201925        2.41993691346225
C            8.95494541449046        0.34803776636140        3.55940482081912
C            7.57224067238244        0.35238172589558        3.51823407439720
C            6.91964980532217        0.04498244698081        2.34260027965413
C            7.63345116295418       -0.26332869182561        1.18024877637055
C            4.74281052249581       -1.59737393343639       -0.04047936049632
C            3.36765643281405       -1.48886456427726       -0.04947450451340
N            0.77331428314907        1.10271656034113       -0.02971090252826
C           -0.55616413846421        1.16125149501803       -0.02684722280758
C           -1.18520253680014        2.48091765638352       -0.01783861469049
C           -2.57358198729128        2.59738110014207        0.05264454758834
C           -3.16790634839219        3.84198140944620        0.06515299774842
C           -2.38349252963857        4.99188849783655        0.00556914074554
N           -2.99543007327857        6.27018785004960        0.01788084853761
C           -3.02851820728553        7.01630042255135       -1.15340902397076
C           -2.49220080396402        6.48396338975163       -2.32996163235322
C           -2.50282987124877        7.20377303886967       -3.50651047879266
C           -3.06014674377183        8.46951449891992       -3.53401626700781
C           -3.61785754732291        8.98590800406428       -2.37910582353304
C           -3.62150951354804        8.28300801859399       -1.18128807947256
C           -4.27994483057447        8.89739769759067        0.03976742471938
C           -3.56781473460736       10.22201071760207        0.37332615839925
C           -5.76442067962385        9.15593123242978       -0.27998799092457
C           -4.19161520736985        7.98433697001337        1.24820421160853
C           -4.74079645629637        8.39651328917219        2.45539532082845
C           -4.66477391662458        7.62505807710345        3.60029917096034
C           -4.00544766322581        6.40992546038856        3.55252533195012
C           -3.45209209216043        5.97549037559252        2.36609827902693
C           -3.55483156564917        6.73969464975874        1.19952223668791
C           -0.99669068485578        4.87956933921426       -0.06572808273061
C           -0.40296652006985        3.63447124315376       -0.07615166273946
N           -1.34869997526424        0.09202742103746       -0.02930341486437
C           -2.95338981516601       -2.18882581029393       -0.10129015761788
C           -3.73693048492618       -3.32399344878063       -0.09980466448473
C           -4.57219954943661       -6.14627025353638       -1.19641268264387
C           -4.34070089584187       -5.43390234131833       -2.37722198521480
C           -4.94936294061025       -5.79965171632301       -3.55974543864959
C           -5.79658137034252       -6.89281939851999       -3.58853846189326
C           -6.00467327249299       -7.61557338333147       -2.42833584097390
C           -5.40311490896123       -7.27126054671586       -1.22489766665018
H           -5.33382011819343      -10.21347906923590        0.55536861771325
H           -5.68511661259386       -9.97673117429625       -1.15350103967428
H           -4.09618917925486       -9.55373564077096       -0.51478019122099
H           -7.72502923403582       -8.51536490064349       -0.52711972325459
H           -7.37156299737315       -8.74938534913521        1.18169403243934
H           -7.49189341543932       -7.11723083668493        0.52340791632942
H           -5.62237584408037       -9.16661785780778        2.48352788153939
H           -4.49955274730300       -8.37644189336349        4.50049617150884
H           -3.14265807215791       -6.29952197783918        4.41371183726644
H           -2.91448921178698       -5.08386562871001        2.31058636471882
H           -1.30369850658140       -5.66917460545120        0.09475908383738
H            0.10181708407359       -3.62435425010824        0.08095567784015
H            3.07621399853556        1.87814891202689        0.02956589086509
H            5.55034903268588        1.68842472643423        0.05388055620919
H            5.80725732302532       -1.08622055043574       -2.30988624028887
H            6.92406194091798       -1.77185071704491       -4.36678669977509
H            9.39591684679700       -1.99771626975261       -4.41635596902164
H           10.69076954703429       -1.49818919988455       -2.40924767682135
H           11.42428383429771        0.21942186619317       -1.19375921881866
H           10.20174573616376        1.34752375777831       -0.60664461177762
H           11.43937954838848        0.73326487142420        0.49056114014140
H           11.34739547745781       -1.73740227758649        1.24100184784069
H           10.03896924266315       -2.76619894559994        0.65732316437445
H           11.32210638632714       -2.25570656871790       -0.44087175222054
H           10.74039075691720       -0.00425651554558        2.47005209015543
H            9.47856097179223        0.59228422359701        4.47143729532312
H            6.99692114325248        0.59089488292758        4.40080670400848
H            5.84059026869482        0.03718474428040        2.32496616414812
H            5.21695417154513       -2.56751111999848       -0.06042677942974
H            2.74424902409257       -2.36854265281590       -0.07282773806691
H           -3.16976672717819        1.69969074756589        0.09462216287578
H           -4.24224564055186        3.93684596924966        0.12138247652986
H           -2.06828969592482        5.49159974529603       -2.32259303407894
H           -2.07820572463132        6.77100635375438       -4.40055471109297
H           -3.07156018657182        9.04537696460608       -4.44714246715203
H           -4.06476213052762        9.96763316259094       -2.41846469411756
H           -4.02436378592228       10.70195943442843        1.23436146311000
H           -2.52020889057757       10.03231185888006        0.60132755253140
H           -3.61709714828824       10.91028418228216       -0.46577714640416
H           -6.26363304684857        8.21584733900480       -0.50908677140959
H           -6.26844347949770        9.61480599659771        0.56594149040507
H           -5.86778249554899        9.81619329813011       -1.13645893134732
H           -5.24263876969328        9.35051420855735        2.51090394858529
H           -5.10619556761301        7.97530852231552        4.52120300184990
H           -3.91575599178984        5.79840338926493        4.43848010035608
H           -2.92727895805551        5.03278208916023        2.34254756130355
H           -0.39463390105855        5.77494267366817       -0.11278280172581
H            0.66964618552251        3.53446232209371       -0.12625789595436
H           -3.40052601851518       -1.20874975078677       -0.15156006510145
H           -4.81287997394473       -3.24830079746884       -0.15356901293592
H           -3.67101846263493       -4.58758340778221       -2.36779898121467
H           -4.75598409051064       -5.23063490939982       -4.45736536667345
H           -6.28252548940507       -7.18767485619982       -4.50646747834648
H           -6.65544034149120       -8.47577698670559       -2.46801325572301
