126
 energy: -186.548266256996 gnorm: 0.000157117263 xtb: 6.7.1 (edcfbbe)
C           -5.18642478500927       -9.57585586872636       -0.24930414095901
C           -5.66749020882491       -8.13181418648023       -0.00815064902512
C           -7.18915183674514       -8.11119467762428        0.23502868694793
C           -4.97369685672573       -7.58644640704846        1.22376568729409
C           -5.14196786251374       -8.22414164265005        2.44549701772839
C           -4.54175196858829       -7.76263284493308        3.60283225656061
C           -3.75067586641709       -6.62602017293851        3.55292602127251
C           -3.56595603103927       -5.97182358578699        2.35485288982233
C           -4.16449527486420       -6.44205518761699        1.17846951998542
N           -3.95486595660288       -5.76667837921664       -0.00817117448246
C           -3.14198283090271       -4.59600064349865       -0.00484962728355
C           -1.75382096417903       -4.70525068817162       -0.08323489785409
C           -0.97286345381629       -3.57237007991304       -0.08141875871754
C           -1.55788225958258       -2.29992490736553       -0.00727122447667
C           -0.73835299207482       -1.10779384465520       -0.01293058995338
N            0.59288455253818       -1.25286684272489       -0.01190592049466
C            1.31489461363081       -0.12548298712815       -0.02038759233674
C            2.75758311817404       -0.23544230505658       -0.02132089704421
C            3.56048684837079        0.91027869123774       -0.11857799749183
C            4.93234069326072        0.80816639753039       -0.11634268563657
C            5.53948589981726       -0.44314320359357       -0.01072023282937
N            6.96061395588166       -0.54413921672330        0.00201968048397
C            7.62156625774930       -0.88113623413568       -1.16353254922581
C            6.88447803578926       -1.12183507375225       -2.33057934203594
C            7.51343428993656       -1.46846156738028       -3.50610280471942
C            8.89440684767552       -1.57747387386481       -3.54300150652344
C            9.62626727982683       -1.32683495938353       -2.39665222178856
C            9.02029144549379       -0.97601440634520       -1.19779301321633
C            9.87723190067483       -0.69319062258974        0.01954179319014
C           10.81402631596541        0.48688559994385       -0.30441103439985
C           10.70217555316097       -1.95191721902983        0.35117382135492
C            9.03880956914498       -0.33395037851213        1.22950960836507
C            9.66243939066596       -0.04961176361469        2.43691103282810
C            8.94555513366026        0.26688979078519        3.57642886626130
C            7.56115081907119        0.29464190523394        3.52367735979878
C            6.91491899413423        0.01907862858858        2.33877858781737
C            7.63837890449570       -0.28555512848027        1.17809230390547
C            4.75278062536376       -1.59078079877047        0.08601976213501
C            3.38069621479962       -1.48787358945205        0.07706380844959
N            0.77491256623875        1.10000116233872       -0.02613001973892
C           -0.56264308143889        1.16182660053671       -0.02373921961677
C           -1.18678105824808        2.46728835637713       -0.02310505696468
C           -2.58083237012292        2.59374226180440       -0.10783801478716
C           -3.17485447273536        3.83476824268724       -0.10152873460484
C           -2.39030824126410        4.98388297861171       -0.00495048642727
N           -3.00592304296434        6.26907767387347        0.01174143170364
C           -3.07586681705538        6.99475569593939       -1.16172855521694
C           -2.55644313529278        6.44812224080302       -2.34268601370466
C           -2.60409077528230        7.14906291723269       -3.52755120508675
C           -3.17556257475165        8.41101344727137       -3.55937265935096
C           -3.70004891235153        8.94876410502992       -2.39825475605828
C           -3.66674707947272        8.26613974453452       -1.18963692027820
C           -4.26851476119074        8.90192508424059        0.04735206589461
C           -3.53220058868028       10.22541707690244        0.33239085435121
C           -5.76316972204983        9.17062695300651       -0.21435817298266
C           -4.13922297731543        8.00635177573582        1.26293078090885
C           -4.64028098685757        8.43209705636226        2.48575363498522
C           -4.53743709668572        7.66133600402168        3.62943628146383
C           -3.90931838832317        6.42790367722515        3.56476638119153
C           -3.40239530513305        5.97909887684987        2.36511108635569
C           -3.51649639168669        6.75144820960704        1.20152123808461
C           -1.00254304199696        4.87240461209563        0.07790461003650
C           -0.40937955175177        3.63102775475769        0.06585099653527
N           -1.35360309092214        0.08179814661495       -0.01922818681001
C           -2.95491302008391       -2.20473706990352        0.07125676064033
C           -3.73648196667440       -3.33679489821911        0.07460016500754
C           -4.52480629065757       -6.18136984524314       -1.19625779857739
C           -4.25814853263976       -5.47066634129375       -2.37401838065040
C           -4.81745045686225       -5.85369120788747       -3.57321388725024
C           -5.65382025073354       -6.95743071563697       -3.62252050346752
C           -5.91050007926829       -7.66774820899708       -2.46401779662455
C           -5.35989239987745       -7.30694068152587       -1.24162480927128
H           -5.40379604882208      -10.20401975171980        0.60954177985839
H           -5.67506571908934      -10.00552028052098       -1.11884323803137
H           -4.11122509231840       -9.58478923246353       -0.41919586142676
H           -7.72298315280514       -8.50771092332723       -0.62368989081429
H           -7.44928571635719       -8.70801557035571        1.10438049089124
H           -7.52308293553354       -7.08938316607094        0.40663245174503
H           -5.76022683228466       -9.10663860043851        2.50264267988093
H           -4.69289550434384       -8.28329623886893        4.53621261414015
H           -3.27849074676767       -6.24680805383854        4.44693848018584
H           -2.95381346350430       -5.08406834406480        2.31827231992881
H           -1.30253493593518       -5.68522560468326       -0.14459691584597
H            0.10223349538541       -3.63990018766095       -0.14249488086835
H            3.07570740313858        1.87076586984690       -0.19924561258657
H            5.55068916348262        1.69104452783630       -0.19308301956961
H            5.80970419806870       -1.03048743077878       -2.30561022965193
H            6.92486701301015       -1.65138660922075       -4.39275514355132
H            9.39744312333633       -1.84987232558928       -4.45836549779204
H           10.70124431886611       -1.40709992858547       -2.44405187156096
H           11.44861845096731        0.25343972657756       -1.15434892213579
H           10.22700226188281        1.37133022206815       -0.54600316782327
H           11.45096904691013        0.71832153953971        0.54431559595155
H           11.34916299749538       -1.77523644372360        1.20536471017028
H           10.03609540208575       -2.77932010375875        0.58920472877109
H           11.32213286541701       -2.24115031125343       -0.49228922343244
H           10.73945911451480       -0.07562273665238        2.49669574421162
H            9.46243662654340        0.48480866750110        4.49864709136080
H            6.98318373889193        0.52920623998447        4.40512477248186
H            5.83676526399474        0.03538962314589        2.30073873888003
H            5.23197806692712       -2.55592655885817        0.16730758027740
H            2.75825500277735       -2.36597815667934        0.15207331845022
H           -3.17379030721727        1.69529337677417       -0.18107662405721
H           -4.24904611973598        3.93140912450168       -0.16857645411532
H           -2.11548468829267        5.46360639079694       -2.32022433192444
H           -2.19580129890658        6.70920198655165       -4.42524163252724
H           -3.21635033452414        8.96994952425435       -4.48185262966267
H           -4.14729417047843        9.92980456123495       -2.44139108981435
H           -3.95134412071759       10.72020203371690        1.20360993594599
H           -2.47813315193402       10.02984713537755        0.52144529036680
H           -3.61008993693498       10.90087766176413       -0.51451124242215
H           -6.27811629529657        8.23374046160538       -0.41952773356307
H           -6.22874292571310        9.63665177780794        0.64912312359461
H           -5.89334889369203        9.82831048297522       -1.06877189929310
H           -5.12522229193619        9.39353034937545        2.55489258399765
H           -4.93984087317154        8.02228413990573        4.56368579314749
H           -3.81235022774221        5.81486692257748        4.44845463960609
H           -2.90919684408834        5.02060522691668        2.31766428445121
H           -0.40276063872158        5.76824126334762        0.15130894568873
H            0.66261808788471        3.52807838889269        0.13145645588161
H           -3.39935867284521       -1.22352302196637        0.13231741592413
H           -4.81274644816390       -3.26273143795525        0.13653341767388
H           -3.60443124701407       -4.61297595645708       -2.33766693087351
H           -4.59911486636559       -5.29059467869081       -4.46838018382697
H           -6.09916113570360       -7.26512968922500       -4.55638557545364
H           -6.55953314871356       -8.52789041878062       -2.52051875289355
