126
 energy: -186.613076860318 gnorm: 0.000032386350 xtb: 6.7.1 (edcfbbe)
C          -10.74474011963769        1.60688177756531        0.38224808411114
C           -9.88395824656059        0.38199212541418        0.01953912075141
C          -10.78428532472644       -0.81540639102881       -0.33904374236168
C           -9.03088043778541        0.72304174862280       -1.18787050804952
C           -9.64943987963059        1.08336054194455       -2.37793448899038
C           -8.93068942215917        1.37397164996593       -3.52273787774142
C           -7.55042319932621        1.28735926435452       -3.49249685620549
C           -6.91020005507253        0.93256942202933       -2.32337272449829
C           -7.63338970210273        0.66612405949378       -1.15659385678240
N           -6.96026828254229        0.31775691542434        0.00767054102463
C           -5.54411570963524        0.25963068674047       -0.00272140347965
C           -4.79409108979256        1.43318272502784       -0.03697415500966
C           -3.41593374968765        1.37335218796057       -0.04630677327180
C           -2.76473567996831        0.13995996619090       -0.02295934434790
C           -1.30425439741833        0.07617787445485       -0.03105851121664
N           -0.62835467156637        1.22259885107401       -0.02880874021938
C            0.69827539099212        1.11691774091940       -0.03681314927705
C            1.48503020387405        2.34911710093152       -0.03806708744760
C            2.87716395575361        2.29438200930735       -0.10898720043354
C            3.62034031766367        3.45633618372995       -0.10570472655953
C            2.98364041680482        4.69316661532212       -0.02825777161665
N            3.74864850735794        5.88633103598349       -0.01698077033287
C            3.87130558584654        6.60014200122887        1.16845271099398
C            3.26812521331603        6.11803442510065        2.33424477966058
C            3.36305138442555        6.81014672588239        3.52357843221252
C            4.07328769653606        7.99605710837667        3.57522546147038
C            4.69747196316051        8.45825714260353        2.43131642783897
C            4.61915689476229        7.78129580924410        1.22121211817714
C            5.36077807879072        8.32606968357579        0.01498292972285
C            6.86476372390994        8.37168985757845        0.34480405571407
C            4.83899030884237        9.74247536902488       -0.29178832299372
C            5.15638766671978        7.45833527528293       -1.21261124763567
C            5.75689563143876        7.82104182176595       -2.41118303505943
C            5.58363932686027        7.09017898653731       -3.57201892503308
C            4.77177045034486        5.97035660091479       -3.54941397080875
C            4.16577873368419        5.58553590034455       -2.37157161529665
C            4.36445791273717        6.30547736912245       -1.18937523844489
C            1.59335080365302        4.75185573203765        0.04043672800865
C            0.85065866114472        3.58945251150743        0.03370099368592
N            1.35322957358977       -0.04163277703524       -0.04067473488992
C            0.59841838010923       -1.13770189135050       -0.03864705999317
C            1.27225949328932       -2.43511599229693       -0.03429535825607
C            0.52901020592609       -3.61401873225638       -0.09517426568726
C            1.16418055091086       -4.83842080373486       -0.08831671392069
C            2.55397246400342       -4.90449763508572       -0.01743066269808
N            3.20619618998105       -6.16293687695541       -0.00737911854569
C            3.76987263150275       -6.62328128451436        1.17585717529871
C            3.65384394687409       -5.86014475077156        2.34186315492721
C            4.21056790683186       -6.28631281743809        3.52974160736555
C            4.88613282308344       -7.49239069297246        3.57976383408211
C            4.97631282832119       -8.26271078143059        2.43511974734146
C            4.42554717394810       -7.85806553394065        1.22612650369919
C            4.53127031708198       -8.76983144420302        0.01805714332994
C            6.02028255149800       -9.01399652806708       -0.29167241381353
C            3.82954742624073      -10.10125040599943        0.34663142935662
C            3.87463198751938       -8.16192530347248       -1.20715009981862
C            3.89180668406056       -8.86109875545235       -2.40702965155132
C            3.33508878834185       -8.35004163296559       -3.56481778128283
C            2.75674329421462       -7.09373824407659       -3.53789855226105
C            2.72459577685129       -6.37814496821579       -2.35917759508284
C            3.26055385853699       -6.90533891845498       -1.18013437471791
C            3.29961857230151       -3.72919282732391        0.04410714239362
C            2.66379170788106       -2.50511480827288        0.03469894782645
N           -0.73231690674703       -1.12547927621887       -0.03773785812521
C           -3.51906903570452       -1.03303293596300        0.01096383394222
C           -4.89702478882212       -0.97403801519420        0.02206523614805
C           -7.63892841118459        0.00945886289439        1.17984068107165
C           -6.91755540538938       -0.27655487958439        2.34316723827081
C           -7.56229241865563       -0.59511517161931        3.52019352035981
C           -8.94466756754088       -0.62530621892448        3.56153244291162
C           -9.66030727366753       -0.31294491690525        2.42046966556487
C           -9.03709149983030        0.01400115891050        1.22323548581071
H          -11.37361069123861        1.90001021400971       -0.45365214467773
H          -11.38687204265218        1.39215499571279        1.23173001669134
H          -10.10262076277214        2.44716882877972        0.64100932715655
H          -11.42192631294695       -1.08439411949726        0.49844491465482
H          -11.41899804051249       -0.58250611212825       -1.18940014332076
H          -10.17061309163100       -1.67772136343537       -0.59472231531717
H          -10.72662813066665        1.13780489581559       -2.41942654586917
H           -9.44425262715839        1.65374405134867       -4.43027224513146
H           -6.96746963091492        1.49150382143401       -4.37869437699680
H           -5.83396680614446        0.85354155285668       -2.31517466381342
H           -5.30234688915836        2.38591681873539       -0.05543262051547
H           -2.82379285143604        2.27440430442737       -0.06806676369258
H            3.35825563788282        1.33064426517068       -0.16259020987302
H            4.69819383274091        3.41871614302348       -0.16147066309741
H            2.72379143445999        5.18660641527223        2.30852558946147
H            2.88381115556203        6.41774723833699        4.40857648554585
H            4.15164942012774        8.55015654701270        4.49849056959118
H            5.26522698422142        9.37436928176647        2.48987467625393
H            7.05271659924161        8.99666098012844        1.21335277942826
H            7.22776245111667        7.36781745293264        0.55913300656983
H            7.43237177144387        8.77040232108645       -0.49132133851646
H            5.35685867236607       10.17049516554724       -1.14544440647867
H            3.77493362722122        9.70457243693886       -0.51935809907465
H            4.98447444477914       10.40171457995774        0.55929501708719
H            6.37925881764640        8.70221302194599       -2.44635359971270
H            6.06813741223186        7.39959073497250       -4.48590501888193
H            4.60451822039290        5.39482329540756       -4.44813235774159
H            3.52395902515600        4.71784776882106       -2.36698731334943
H            1.10667197862289        5.71416770498958        0.10001959708463
H           -0.22619767470002        3.62125526210074        0.08245671660491
H           -0.54637207489855       -3.54979746125557       -0.14445026339912
H            0.59254047883278       -5.75338297528139       -0.13772291133155
H            3.11570518830025       -4.92502674724583        2.31695149298851
H            4.11044275445377       -5.67562470999801        4.41515914347697
H            5.32944818303998       -7.83652430236775        4.50206469341312
H            5.49060232842568       -9.20995238751383        2.49231550902776
H            6.13588905929639       -9.67567625101369       -1.14543375138674
H            6.51110986847017       -8.06942174020853       -0.52037904154541
H            6.52387644369437       -9.46528951083295        0.55854166405632
H            2.77900147460947       -9.92140981369446        0.56906714366235
H            3.88970538328116      -10.78808773307061       -0.49299078917302
H            4.28582222919913      -10.57757892338953        1.20985411765600
H            4.35414208097920       -9.83568797920554       -2.44554656524972
H            3.36310364776465       -8.92272411199645       -4.47959078583248
H            2.33210544847064       -6.66517282687719       -4.43395008954799
H            2.28374695824626       -5.39314538133373       -2.35162182179322
H            4.37659075339868       -3.78795127861314        0.09933577373330
H            3.22958842588461       -1.58802075692580        0.07830232051779
H           -3.00594269383283       -1.98145470412429        0.02536404746915
H           -5.48524264709696       -1.87933124252177        0.05030006708349
H           -5.83901554910755       -0.24203563081836        2.32520441561972
H           -6.98119001681637       -0.81569142227417        4.40366059111845
H           -9.46193775492713       -0.87797413109162        4.47490370095517
H          -10.73844258930913       -0.32375409450510        2.47049957906853
