126
 energy: -186.548522429295 gnorm: 0.000070522321 xtb: 6.7.1 (edcfbbe)
C           -6.92959794932390       -8.33668153344120       -0.02673323096224
C           -5.38889876716739       -8.31373461712063       -0.02985404825171
C           -4.83632178237154       -9.75240420983015       -0.02633927686133
C           -4.91510054691763       -7.61537219813834       -1.28855953015417
C           -5.26797718399329       -8.12407025002161       -2.53125431587970
C           -4.86196853026955       -7.52687936112924       -3.71082793983528
C           -4.07629453862755       -6.38647653200086       -3.66162332797993
C           -3.71141212968805       -5.85820744846896       -2.44287103385934
C           -4.12280258608008       -6.45913383475999       -1.24594748142123
N           -3.74151321704179       -5.90282827325406       -0.04065084467817
C           -2.97014312903809       -4.70349340372705       -0.04531173426386
C           -3.61277688595135       -3.46565717110701       -0.04600592925147
C           -2.87338619193111       -2.30558597475852       -0.04732732982663
C           -1.47172244897951       -2.35069662849991       -0.04771563243202
C           -0.69620303649483       -1.12924243199949       -0.04448142990012
N           -1.35426662013457        0.03713693831756       -0.04313951685966
C           -0.60314999312046        1.14548382776872       -0.03501723252286
C           -1.27430226858505        2.42733993280563       -0.02626923795379
C           -0.53701299921856        3.62002411202764       -0.00550176969478
C           -1.17441870717554        4.83925101845285        0.00902326330083
C           -2.56774054435141        4.89856025366069        0.00273701390843
N           -3.22691285856058        6.16279240312319        0.02031493216726
C           -3.53608649593439        6.74029599903143        1.23621948952924
C           -3.21013334972680        6.06760159020395        2.42124627370832
C           -3.50719854299235        6.61501637648045        3.64994049683877
C           -4.13516796011514        7.84820156145392        3.72126054163023
C           -4.45732510887333        8.51557274911723        2.55350497255338
C           -4.17194635239211        7.98848392178310        1.30114183582011
C           -4.54952909484942        8.76563038099035        0.05604373837170
C           -3.81896528581577       10.12229908220506        0.08001168071271
C           -6.07517126304277        8.98373983590012        0.05367092345874
C           -4.16253271413361        8.02774652487376       -1.20986150004411
C           -4.43677701296383        8.59447240274155       -2.44729304307499
C           -4.10726004766712        7.96289373069073       -3.63279406845003
C           -3.48392510944383        6.72585489296953       -3.59525003831787
C           -3.19699342936992        6.13998372307297       -2.38198948392964
C           -3.52908230868638        6.77708656130785       -1.17915566674285
C           -3.31351267157311        3.72032637740754       -0.02077917926835
C           -2.67469908386086        2.50170420095007       -0.03493556672612
N            0.73571770550700        1.13204675022997       -0.03139997007718
C            1.32005381792812       -0.07280951126173       -0.03366576455994
C            2.76566548099279       -0.13060202379871       -0.02561484933865
C            3.43283582765343       -1.36401843241050       -0.01698554837207
C            4.80766693806704       -1.41820516217262       -0.00372827896151
C            5.55252850453907       -0.23910794460538        0.00006585323475
N            6.97721241762376       -0.29433204198263        0.01734066550190
C            7.63266599041182       -0.28209696289937        1.23299024874261
C            6.88678658725857       -0.21873468959599        2.41734398828114
C            7.50998160167209       -0.20345656117267        3.64571939177601
C            8.89298285685226       -0.25208880699389        3.71748519362245
C            9.63235358087692       -0.31593793738087        2.55039744639061
C            9.03246973889576       -0.33329784659976        1.29846182131848
C            9.89480922710419       -0.40412793893642        0.05423032166688
C           10.81634643641537        0.83089056840405        0.02172445828901
C           10.73687587789050       -1.69353440030251        0.10844777865924
C            9.06097024022334       -0.41911478753988       -1.21113758055766
C            9.68903588410801       -0.48718768191825       -2.44742551093644
C            8.97659838181553       -0.49660641167230       -3.63280149402338
C            7.59279247454177       -0.43320464533505       -3.59626535492228
C            6.94190492497855       -0.36587953950524       -2.38408575955005
C            7.66022987881101       -0.36023593938113       -1.18121794263525
C            4.90182387932090        0.99436621732580       -0.01076890090195
C            3.52702237899734        1.04711269033475       -0.02336004211712
N            0.63928202049546       -1.22586753707591       -0.03978102312516
C           -0.83838606703058       -3.60196261679551       -0.04848177633826
C           -1.57678563631853       -4.76322399243690       -0.04730916122939
C           -4.11737228314273       -6.45206902859945        1.16964257567703
C           -3.70013675249915       -5.84461094617592        2.36125937937066
C           -4.06028268536669       -6.36526001959348        3.58467849780088
C           -4.84697260397679       -7.50445903669188        3.64405751718696
C           -5.25828384304600       -8.10843713927547        2.46979526466521
C           -4.91007181169797       -7.60760175174983        1.22259334996899
H           -7.30998815336970       -8.85032953678298       -0.90473881667893
H           -7.30646565268881       -8.84525824633887        0.85573662027010
H           -7.31589169193607       -7.31896866064233       -0.02888949732747
H           -5.16833854278959      -10.29080205553471        0.85652286593585
H           -5.17141803429297      -10.29639891608681       -0.90459642678463
H           -3.74790139382922       -9.73176800234192       -0.02828669284441
H           -5.87788953830745       -9.01244586801348       -2.58735990991970
H           -5.15565122490663       -7.94830028710414       -4.66017498912955
H           -3.74827680323121       -5.90676986391701       -4.57178462674972
H           -3.10162647719367       -4.96889782994348       -2.40475958768775
H           -4.69277905560701       -3.43036979508338       -0.04479369875407
H           -3.35553061052048       -1.34037293924440       -0.04701426253769
H            0.54004660629045        3.55720267672723        0.00001830148932
H           -0.60556995957011        5.75783652375481        0.02608068682394
H           -2.72003640002180        5.10790300269222        2.36631567094740
H           -3.24769362925609        6.07866487151239        4.55054383159215
H           -4.37236038238945        8.28663220069246        4.67865429895029
H           -4.94544966712997        9.47507195908919        2.62695220603172
H           -4.08205449878937       10.68655688859134        0.96996122669210
H           -2.74195104128731        9.96410806835654        0.07845641479405
H           -4.08020559404222       10.71664318759391       -0.79068229790852
H           -6.38260066868584        9.54986520067653       -0.82067080048545
H           -6.58719350850756        8.02315212289868        0.03980827545671
H           -6.38860435389512        9.52771741595124        0.93985925857307
H           -4.92181457147419        9.55720244252474       -2.49434898911753
H           -4.33549667193342        8.43185036976709       -4.57783540833688
H           -3.21984500108585        6.21670087392761       -4.51017432534009
H           -2.71014819485654        5.17748491576114       -2.35273051409185
H           -4.39262470403972        3.77664858824796       -0.02688962205890
H           -3.23673939846914        1.58089102769270       -0.05214841860450
H            2.84200965992212       -2.26677701665551       -0.01930025636299
H            5.32151176322990       -2.36876511176795        0.00417274480329
H            5.80986119897754       -0.18186584196761        2.36182095580396
H            6.91548347365043       -0.15417689504370        4.54584835748745
H            9.39184706940343       -0.24024343977654        4.67463220779328
H           10.70825458835971       -0.35272208224470        2.62376644758432
H           11.46287755259667        0.80686264540476       -0.85065315537208
H           10.21835777519415        1.73975088340727       -0.01796149243829
H           11.44114815233220        0.86923994262404        0.90928194741820
H           10.08294962788191       -2.56354288592575        0.12870956652997
H           11.38297731690675       -1.76953911342120       -0.76117859224559
H           11.35938499981842       -1.71109531979525        0.99819375120323
H           10.76607826015243       -0.53367923847345       -2.49351135659624
H            9.49693547237356       -0.55065130590858       -4.57698618557113
H            7.01928017249284       -0.43650914710556       -4.51122680120996
H            5.86443923639342       -0.31574666286057       -2.35563443986437
H            5.48785459414264        1.90225892505023       -0.00844517305200
H            3.00781945142374        1.99287082198565       -0.03122535155993
H            0.24017044822487       -3.63039474022864       -0.04929683661238
H           -1.08807195326482       -5.72702253771324       -0.04730587203317
H           -3.08956091928876       -4.95623415274819        2.31549567950522
H           -3.72773961165584       -5.88049879465232        4.49050380088198
H           -5.13722119604163       -7.91975316015896        4.59714439948230
H           -5.86865955536942       -8.99595647919661        2.53381935082262
