115
 energy: -171.888433960206 gnorm: 0.000113813137 xtb: 6.7.1 (edcfbbe)
C            1.50583549578073       -7.93547678926928       -4.62368270224083
C            0.32503641776308       -7.88650278737637       -3.64240895897285
C            0.55284394002923       -8.89952308496039       -2.50993084034979
C           -0.94105399033352       -8.29372055176881       -4.40090790178336
C            0.22836881630231       -6.49558930386787       -3.04603373652725
C            1.31651963655764       -5.96013455236195       -2.34669459630736
C            1.28047048160161       -4.70708647765600       -1.79119702842470
C            0.13217643249765       -3.88756363893924       -1.88216060330528
C            0.08076693081484       -2.59076833990434       -1.28258380084744
C            1.26631772021629       -1.87233872625587       -0.95381187989829
C            1.23732304863616       -0.62395319844984       -0.40911857539852
N            2.42757962861518        0.04376937279769       -0.09471375107763
C            3.46106071802503       -0.47215942063709        0.65470089126640
C            3.58340852315608       -1.71545191639034        1.26136587270802
C            4.73474899208470       -1.97697305927893        1.97469489238197
C            5.75811574123656       -1.02825198625084        2.11054365157946
C            6.96919889502183       -1.35565496465667        2.87339772128031
C            7.56290542779352       -2.61211874230974        2.76232020943086
C            8.70618781059766       -2.91687181788724        3.47629969702867
C            9.27363240894580       -1.97532555290542        4.31887396085288
C            8.69088607312151       -0.72462510461131        4.44017886352041
C            7.55137747047476       -0.41532273557322        3.72215731956517
C            5.61460841581356        0.22830147836411        1.52517057208896
C            4.47214747518260        0.50820226511036        0.79903398951110
C            4.01081826708168        1.67280335364067        0.08849292283206
C            4.55130116662321        2.92461465956026       -0.13787517786812
C            3.83349100400803        3.84677131671680       -0.89707424714437
C            4.37300379320302        5.19103403536231       -1.13543709588603
C            5.72711407662766        5.37885072188409       -1.40841755556286
C            6.23058317910080        6.64575494618947       -1.63506804801414
C            5.39291265947016        7.74779589997578       -1.58574566845086
C            4.04652117575038        7.57394926714149       -1.31036306306076
C            3.53914875839367        6.30751647320457       -1.09061824373867
C            2.59523557787421        3.48162255190094       -1.44404079007747
C            2.04689676267798        2.23353425649106       -1.24274457671278
C            2.74472668272607        1.33530030006878       -0.44620559077642
C           -0.01320969298514        0.02509159101212       -0.09028900218700
C           -0.05751409756992        1.16519666760700        0.68313104701603
N           -0.09375610266805        2.13415739681860        1.32205477622211
C           -1.21324837357742       -0.69074378158688       -0.45295036459762
N           -2.44872079394298       -0.10231608002066       -0.14845708938301
C           -3.45227412476296       -0.68364859739141        0.59350980070601
C           -3.50438743333778       -1.93750562545612        1.18853301601101
C           -4.64007571512352       -2.27025028979106        1.89728448286004
C           -5.71600195712431       -1.38269149951434        2.03975003173835
C           -6.90551888684963       -1.78406118533190        2.80121409952486
C           -7.42684625025427       -3.07152091895695        2.68214426158749
C           -8.54894483184522       -3.44612182719117        3.39651962089222
C           -9.16684098319069       -2.54463623903721        4.24740600912072
C           -8.65623195641818       -1.26354882798024        4.37644316730475
C           -7.53823195934266       -0.88455083524264        3.65802042169495
C           -5.64492502719879       -0.11587094048346        1.46333747587539
C           -4.51922014313273        0.23512497694859        0.74188992734931
C           -4.12451065687082        1.43017385564600        0.04210705392605
C           -4.73611053410841        2.65024091931760       -0.17639070992531
C           -4.07000182150415        3.61940131661910       -0.92404115933111
C           -4.68594888453853        4.93228045210236       -1.15177475827702
C           -6.04818683670376        5.04394235068543       -1.42631587735862
C           -6.62416689275800        6.28170135146144       -1.64093829446555
C           -5.85219487928110        7.43005831205179       -1.57810650960651
C           -4.49841444949341        7.33188937088889       -1.30158074155380
C           -3.91860173862858        6.09490154662785       -1.09363887437470
C           -2.80996809399194        3.33197364568984       -1.46780960068882
C           -2.19048447975699        2.11639899796767       -1.27424038544987
C           -2.83865346212666        1.17164705026110       -0.48946699325434
C           -1.15409535450860       -1.92979767628035       -1.01559666463078
C           -0.96124681518477       -4.43806407039003       -2.58607533014248
C           -0.90897085856264       -5.69210083146666       -3.14583378384974
H            1.36538591148065       -7.20397689790248       -5.41691617250274
H            2.44628329506041       -7.71977402628016       -4.12442927295599
H            1.57833512829739       -8.92370041654679       -5.07337388016307
H           -0.27325549574002       -8.86391406789765       -1.80253948739280
H            1.47207316167501       -8.68864327737665       -1.97036158906565
H            0.61794758069354       -9.90719120568735       -2.91538482894603
H           -1.80486910876838       -8.31211489626890       -3.74036545541975
H           -1.13762523087104       -7.61315250029245       -5.22628942762744
H           -0.81220370370970       -9.29299906842526       -4.81237257712606
H            2.21709321104576       -6.54526270621075       -2.22878211135751
H            2.14300887398584       -4.36282815312141       -1.24076746290080
H            2.22727563646310       -2.29465220223993       -1.20318040423493
H            2.79630205376708       -2.45080904422549        1.19084667791275
H            4.84217301150245       -2.93200623786011        2.46684191428551
H            7.13643065216113       -3.34504078629243        2.09291891988784
H            9.15879478569513       -3.89259217400689        3.37412912752849
H           10.16554207553664       -2.21527323334178        4.87849493376509
H            9.12594462728828        0.01205883525621        5.09990359021376
H            7.09087668334035        0.55512514815097        3.83681002236469
H            6.39482697485750        0.96796096275606        1.62131087575793
H            5.50616484048566        3.19283444051154        0.28821159519521
H            6.38246615188350        4.52184935230770       -1.46676607724858
H            7.28079817608093        6.77510746632886       -1.85342134275167
H            5.78791622726698        8.73764326437834       -1.76045912985715
H            3.39003521105180        8.43074841807715       -1.26443186063006
H            2.49284559188606        6.17919519890150       -0.85542751965854
H            2.07076256419509        4.19252520089896       -2.06451797652474
H            1.10689786708484        1.96460794336645       -1.69770889972406
H           -2.67785559754108       -2.62748325467336        1.11155335200701
H           -4.69330316051285       -3.23420886259332        2.38072014329262
H           -6.96078565887210       -3.77406090555288        2.00658159509590
H           -8.94535514482011       -4.44536080423744        3.28831303953816
H          -10.04188209531306       -2.83924671393651        4.80756052507367
H           -9.13074657369520       -0.55771240285879        5.04266928442581
H           -7.13347782644363        0.10973683599661        3.77866181101222
H           -6.46690957817814        0.57659328510763        1.56308064842521
H           -5.70679694385664        2.85853139303493        0.24744165365044
H           -6.65255089941935        4.15099630379677       -1.49509745406669
H           -7.67979366625254        6.35201405131783       -1.86024333762225
H           -6.30390465516377        8.39706037541399       -1.74313510506042
H           -3.89297336522331        8.22490352511467       -1.24525156227512
H           -2.86706089520008        6.02531147801058       -0.85713010165186
H           -2.32482471289545        4.07790088768471       -2.07911779610904
H           -1.23371829129625        1.90716729790104       -1.72579616699033
H           -2.08278529656524       -2.42524258842825       -1.25138840005711
H           -1.85841339749258       -3.85355163806512       -2.72266604060044
H           -1.77813599844996       -6.04439585000488       -3.67828333590425
