115
 energy: -171.973842883120 gnorm: 0.000044463984 xtb: 6.7.1 (edcfbbe)
C           -1.15133382393014       -8.71419699104475       -1.41415301166258
C           -0.14059184302340       -8.15310571566921       -0.41041905803674
C            1.25895095920511       -8.63431851742577       -0.81907858275736
C           -0.49361584604604       -8.69925334118473        0.98047040703470
C           -0.14488490058710       -6.63453624365538       -0.36089163870059
C           -0.97787208257942       -5.85177542829395       -1.15177889682222
C           -0.95465054242684       -4.47158540961851       -1.07437581194522
C           -0.08714343174571       -3.81742644482018       -0.20590118333306
C           -0.05791580263891       -2.35242263470037       -0.12589397135115
C            1.15028968651315       -1.67640031803075        0.02515711626497
C            1.18957127818238       -0.29295644768920        0.11336950343939
N            2.41332428713451        0.35735820680496        0.28383737242846
C            2.73584997485749        1.24070958652849        1.29895047305505
C            1.99001364625587        1.63825554341363        2.39747809013661
C            2.57737553523641        2.50448745447304        3.29663840524003
C            3.88595298607877        2.97565598414751        3.13041131575936
C            4.46805538775630        3.89976736093008        4.11554004295766
C            4.26669920530886        3.70747374692632        5.48038081921376
C            4.82225137062989        4.57349710778571        6.40355733991646
C            5.58478415952811        5.64878038055270        5.97948165027648
C            5.78982422869904        5.85113693148611        4.62497166584498
C            5.23879840665392        4.98342951329384        3.70075380125662
C            4.63520059535133        2.55352534147567        2.03962270090802
C            4.06697212300395        1.67893541771734        1.12747360012105
C            4.56589580376041        1.02573053677662       -0.05260565533215
C            5.77679282836498        1.06984929895369       -0.72446192178941
C            5.94008727247203        0.31491714244182       -1.87957482901713
C            7.21457101655639        0.34803449142435       -2.61296959691215
C            8.42744243652470        0.32425261526298       -1.92815530532501
C            9.62602516900773        0.35692342826125       -2.61592928647819
C            9.63406924448262        0.41849117164951       -3.99933207537398
C            8.43450563497539        0.44565632240365       -4.69062070828265
C            7.23506413030704        0.40862707524028       -4.00449107753892
C            4.88087585588212       -0.47270709234172       -2.34878789550845
C            3.66781373831827       -0.53560029846950       -1.69301972032065
C            3.51752769403808        0.21157025583320       -0.53495708113948
C           -0.00202522534631        0.44834624362953        0.02858612924032
C            0.02824720856489        1.85766070542330        0.10744732318016
N            0.05526895696344        3.00249065753095        0.17173168794590
C           -1.22206631168137       -0.23074467911299       -0.13639409132701
N           -2.41749722540810        0.48267205958661       -0.23787480200722
C           -3.53833037675688        0.28672276998778        0.54748258338056
C           -3.73574300496736       -0.58528292753934        1.60702879246568
C           -4.95576986339648       -0.55180419992586        2.25209418744022
C           -5.97623316773354        0.32772213248517        1.86821885418676
C           -7.26128369556668        0.32312471209565        2.58366489980356
C           -8.46159224847245        0.42857284045451        1.88455262558269
C           -9.67047413794935        0.42576103884593        2.55477708334692
C           -9.70135916253606        0.32208537340090        3.93532926421031
C           -8.51438100069022        0.21955534661147        4.64111107998959
C           -7.30481022331248        0.21778571304901        3.97193886155417
C           -5.76486190406891        1.20821280996491        0.81421217504798
C           -4.54608025792450        1.19534046980253        0.15553233863978
C           -4.00551034082582        1.96115926247074       -0.93510516543061
C           -4.52601354385415        2.95945037061777       -1.74304056831990
C           -3.74024508029485        3.48517798850789       -2.76037151929729
C           -4.26147417436441        4.55189251181552       -3.62849282977811
C           -5.57071515623530        4.50799297656100       -4.10196055596911
C           -6.05771803243482        5.50940956024080       -4.92106265353426
C           -5.24678909534206        6.57386677913581       -5.27723991118696
C           -3.94457779698824        6.62967955421798       -4.80930100420168
C           -3.45442130225027        5.62686130994559       -3.99387613360549
C           -2.44896007795567        2.98363936299365       -2.96876185681924
C           -1.91449796110247        1.98438480622851       -2.18197869652304
C           -2.69082186243394        1.49166933429169       -1.14479467435359
C           -1.23760539411094       -1.61619394913650       -0.20046804405146
C            0.75398892648236       -4.59570451716320        0.58606609556951
C            0.71869823776355       -5.97236465018822        0.50972044883706
H           -2.16584140588266       -8.42020364793969       -1.15488772655720
H           -0.92853352107112       -8.37875535130318       -2.42445422168350
H           -1.10485842125716       -9.80116284334117       -1.40462623689875
H            2.01294824206881       -8.31725019980471       -0.10401513119016
H            1.52463620856618       -8.23347934995106       -1.79517219393913
H            1.27878350423508       -9.72045365669744       -0.87517936754967
H            0.23268780996861       -8.38834279768308        1.72618648025278
H           -1.47369479146727       -8.34039084787393        1.28812602759192
H           -0.51526351303922       -9.78661242240167        0.96000343490577
H           -1.66264175849574       -6.30877352610449       -1.84717278300719
H           -1.60313064039592       -3.89542959285830       -1.71849936165189
H            2.07690410810105       -2.22719936253531        0.07798983727849
H            0.98167055828503        1.28578892977051        2.55535493297952
H            2.00453686355238        2.84475954588459        4.14610009166022
H            3.68697867428232        2.86077812731043        5.81890493421714
H            4.66186412472395        4.40813049511372        7.45933998884087
H            6.01683487061659        6.32612701698479        6.70139202654669
H            6.38005618448127        6.69109026461382        4.28782331987477
H            5.38704909258637        5.15604997972871        2.64461447752412
H            5.65712897040752        2.87936223317700        1.91750703828981
H            6.57374253083002        1.70487459733940       -0.36845544640569
H            8.42755613007058        0.26009337187561       -0.84951175052736
H           10.55877796608943        0.33231875775047       -2.07099908662953
H           10.57081450361798        0.44590887458942       -4.53624062271348
H            8.43420534560576        0.49900462262145       -5.76986396154379
H            6.30284078506680        0.44892295213900       -4.54926863790504
H            5.02545029101254       -1.06215517395102       -3.24207271864499
H            2.86342416596825       -1.14525354701108       -2.07790395443365
H           -2.96196343023044       -1.26818945927050        1.92593597487953
H           -5.13717057398549       -1.23686548150678        3.06702449936249
H           -8.44438284932704        0.49359203279396        0.80610513808773
H          -10.59344126370498        0.50284357966317        1.99819885488641
H          -10.64604820898654        0.32193910066517        4.45884465160298
H           -8.53179889160068        0.14368568872626        5.71885674508045
H           -6.38180211454712        0.15625089327111        4.53023387885203
H           -6.53016558529372        1.91382787528758        0.52867912149129
H           -5.52358037812072        3.33421675731104       -1.57076999564070
H           -6.20294250218107        3.67126535764317       -3.84140024559933
H           -7.07367549519028        5.45868308887489       -5.28579332351408
H           -5.62824933002450        7.35660709871701       -5.91635368765091
H           -3.30885043431978        7.46047119983957       -5.07973179505074
H           -2.44381089989711        5.68421855502476       -3.61663983441531
H           -1.86363447140770        3.37564875962233       -3.78692057319972
H           -0.92477108445990        1.60124473789505       -2.38086439453326
H           -2.18483939529973       -2.12075071080207       -0.31398179507094
H            1.42360631269292       -4.11868736158347        1.28699279781053
H            1.38167162947806       -6.53766795923350        1.14709267374596
