115
 energy: -171.975626266586 gnorm: 0.000071654096 xtb: 6.7.1 (edcfbbe)
C            1.70561930677167       -8.02509024224782       -4.21369933971069
C            0.32404183980364       -7.84273146998411       -3.56932321653106
C            0.13530018561197       -8.86886029831919       -2.44280424307223
C           -0.73985591822666       -8.10526866554201       -4.63844351592735
C            0.23243265533285       -6.44438847252727       -2.98215775439636
C            1.14046570136188       -6.04961680333852       -2.00149285350980
C            1.09854016588761       -4.78964560820861       -1.44233395466049
C            0.13185161134293       -3.86722103142350       -1.83643754657923
C            0.07996194189922       -2.52991468808381       -1.23455292687340
C            1.25575635695110       -1.84066235250604       -0.94943554905686
C            1.22401568239001       -0.58140527855278       -0.36786628011854
N            2.41632961448233        0.07868550633432       -0.07368036018098
C            3.47498849321380       -0.46258926563317        0.63377666758230
C            3.60349407144458       -1.71208716478724        1.22063160752133
C            4.77343387567456       -1.99237328014201        1.89719787912628
C            5.80634762640741       -1.05382865034607        2.01683000092838
C            7.03462274117059       -1.40157576245212        2.74711227958394
C            7.62930767106120       -2.65087644057452        2.58588092218530
C            8.78583810627589       -2.97455278992203        3.27036677676634
C            9.36575762103943       -2.05778554368499        4.13100980498578
C            8.78220715952928       -0.81344586480586        4.30078436497977
C            7.62822210820985       -0.48660256092914        3.61367660331965
C            5.65677905577725        0.20737788145074        1.45355184193500
C            4.49377145458349        0.50666278169091        0.76258057827115
C            4.02492744833034        1.68645578723955        0.08706060230194
C            4.58338520618464        2.93408173069209       -0.13993212219248
C            3.86485342123803        3.87624569599465       -0.86446863700522
C            4.42270890376518        5.21561666405516       -1.10480166586401
C            5.76514737253032        5.37908135619463       -1.43829091724021
C            6.28638665105400        6.63938443355059       -1.66403552929232
C            5.47688682190738        7.75769726899105       -1.55597085713171
C            4.14142770120747        7.60716970137406       -1.22183657447319
C            3.61736103981273        6.34741220070286       -1.00023511448415
C            2.60579256983942        3.54126816743428       -1.37859821869865
C            2.03740018062332        2.30155974542730       -1.17260425278456
C            2.73948785107519        1.38173543686475       -0.41025538796249
C           -0.01197944798618        0.01059215779527       -0.05339256181832
C           -0.05667101830951        1.21373682485288        0.68310736080099
N           -0.09178073656022        2.15873100321886        1.33227143978723
C           -1.20200594164257       -0.66660749859826       -0.37486660038441
N           -2.43745508764709       -0.08779374464266       -0.08579988485351
C           -3.45884899536049       -0.68719260101824        0.62986952723268
C           -3.51125074258099       -1.93935712326360        1.22283491811926
C           -4.65959602685277       -2.28304627858289        1.90739504399181
C           -5.74490893213894       -1.40579839897558        2.02826336002807
C           -6.94659874710027       -1.81983749769444        2.76821099498558
C           -7.46780032767010       -3.10301195015446        2.61911762547402
C           -8.59958514376635       -3.48894338325485        3.31265034777332
C           -9.22761565594891       -2.60157533422142        4.17035993830752
C           -8.71715411976154       -1.32397795386578        4.32813692610410
C           -7.58813113646302       -0.93501528879684        3.63195704444859
C           -5.67311479607603       -0.14193169152383        1.45578112446525
C           -4.53310391758030        0.22072983447231        0.75695815416211
C           -4.13941261765632        1.42149092531101        0.07055493071648
C           -4.77302267414353        2.63120234134516       -0.16417079793586
C           -4.11590130431587        3.60868083497137       -0.90022580309162
C           -4.75527631543005        4.90929895424740       -1.15007224251718
C           -6.10714242728602        4.98761908694131       -1.47638557977514
C           -6.70538211008832        6.21154053558211       -1.71112247059338
C           -5.96468690115566        7.37798265479748       -1.61966180218807
C           -4.62054983178255        7.31220749358927       -1.29298835499245
C           -4.01961458332237        6.08895479016876       -1.06216705400586
C           -2.84098014464954        3.34600410024550       -1.41739004572387
C           -2.19785277444446        2.14478467020558       -1.20337113471660
C           -2.84006599548426        1.19085804813649       -0.43011397253656
C           -1.14316978484439       -1.92503758420797       -0.95566382179980
C           -0.78055353843516       -4.25610408378680       -2.81141680896122
C           -0.72624709051140       -5.51758265865988       -3.37465118566886
H            1.85644385843778       -7.28463295891157       -4.99663877112930
H            2.50282876817023       -7.91624017813948       -3.48372801705739
H            1.78323531735117       -9.01573126400069       -4.65626452762855
H           -0.83281199866691       -8.73028841166613       -1.96576112914735
H            0.90625837366696       -8.77174535444906       -1.68349827527931
H            0.17995286260868       -9.87825734940559       -2.84574215199967
H           -1.74185230868309       -8.01739571733499       -4.22478698028395
H           -0.63539362342351       -7.41569236998978       -5.47300782463197
H           -0.62405130104121       -9.11642430872759       -5.02305265785841
H            1.90035431881903       -6.73640326474116       -1.66053849335705
H            1.80970119702234       -4.52652248891234       -0.67271684436288
H            2.21057487167769       -2.26928155302055       -1.21206033821046
H            2.80944774441548       -2.44223989065261        1.16893985510808
H            4.88736971182427       -2.95538400621910        2.37268025258544
H            7.19140251822395       -3.36467557355694        1.90290825015543
H            9.23877911629774       -3.94563580758941        3.13058737920824
H           10.26822116411217       -2.31205354800186        4.66710832020691
H            9.22758562089616       -0.09545131196935        4.97425483138491
H            7.16763529158316        0.47907471343928        3.76390173311469
H            6.44330446979095        0.94171738276530        1.53812756690838
H            5.55718306726778        3.17494881045554        0.25871000429733
H            6.39785604937818        4.50908896692302       -1.54057437459981
H            7.32841885530890        6.75033943358249       -1.92775263383585
H            5.88528107252426        8.74220487149393       -1.73088165751382
H            3.50627586997896        8.47656297553606       -1.13103081596600
H            2.57963261566405        6.23660530477668       -0.72120729232720
H            2.07560596722050        4.26893059076378       -1.97458215679301
H            1.07810325431631        2.06283267877664       -1.60546385056103
H           -2.67876470256718       -2.62501750862841        1.16724747278049
H           -4.71445015169881       -3.24882060915349        2.38758527248382
H           -6.99224379997024       -3.79487301428466        1.93876724679369
H           -8.99541580074661       -4.48595302346357        3.18231442381374
H          -10.11060357406103       -2.90447823229162        4.71358956606850
H           -9.20014974486807       -0.62852957084799        4.99935367172799
H           -7.18422152096843        0.05708789076235        3.77282240437820
H           -6.50132580433224        0.54520685187891        1.53925431200185
H           -5.75787826203128        2.81628604086959        0.23707343073862
H           -6.68648238627208        4.07986699910424       -1.56589655855427
H           -7.75382885173257        6.25628754682724       -1.96890605069891
H           -6.43319452685151        8.33402544484253       -1.80164279448529
H           -4.03883498993532        8.21943784151316       -1.21517791156044
H           -2.97544201146680        6.04437028706449       -0.78881331369869
H           -2.35837864618706        4.09897206807165       -2.02233001832374
H           -1.22790840796947        1.95991311561461       -1.63918800361327
H           -2.06490912095146       -2.43621501857292       -1.18648906981320
H           -1.52791674014220       -3.55585362818384       -3.15541135539747
H           -1.45097704300610       -5.76559671531992       -4.13268026676944
