115
 energy: -171.888454187863 gnorm: 0.000070246943 xtb: 6.7.1 (edcfbbe)
C            1.19509787459289       -8.70348747540673       -3.41911861739499
C           -0.11275515915168       -7.92626434863502       -3.59106723679717
C           -1.23747774261249       -8.72619918602934       -2.91642033806546
C           -0.40011201192210       -7.79981685114750       -5.09492434565348
C           -0.05462214591432       -6.53998897274709       -2.97939184550878
C            1.07230373286290       -6.02951081276444       -2.33293430463913
C            1.08797119223893       -4.76534801319961       -1.79427515289700
C           -0.03661778652628       -3.91193418642477       -1.85399045449521
C           -0.02834698885793       -2.60739150567099       -1.27001677629858
C            1.18891622241320       -1.93172930686789       -0.96458869686139
C            1.21614655351149       -0.68048409658184       -0.42676592557201
N            2.43591226355844       -0.05932108428381       -0.12946138778658
C            3.45336078326444       -0.61051209669094        0.61677829187439
C            3.53161696600662       -1.85451978509587        1.22917399376102
C            4.67549390580361       -2.15549638471688        1.93893540633873
C            5.73430423500733       -1.24521983592723        2.06549166244358
C            6.93410499353170       -1.61319116917738        2.82770210878193
C            7.48008075497571       -2.89168595693125        2.72360064357368
C            8.61177326546284       -3.23492770710730        3.43859490426660
C            9.21493088986072       -2.31040094092213        4.27519361317439
C            8.67988555390692       -1.03789546492938        4.38924889517334
C            7.55215409078406       -0.69026874427716        3.67017153175585
C            5.63613996259056        0.01239445072343        1.47308920832427
C            4.50173963087624        0.33140756512243        0.75043480581293
C            4.08080843487298        1.50925337049098        0.03658973718887
C            4.66630675664204        2.73909609559287       -0.19801792043258
C            3.97873801918444        3.68474959980350       -0.95633583533516
C            4.56598490980665        5.00760338163541       -1.20155252309514
C            5.92487960573108        5.14522451811356       -1.48062948515198
C            6.47331695391556        6.39235881339895       -1.71251087358823
C            5.67666523691736        7.52437760915697       -1.66262261614281
C            4.32595372760781        7.40044861542730       -1.38149199633447
C            3.77364276696052        6.15392849872186       -1.15634542799948
C            2.72452510796778        3.36401121020141       -1.49475656902088
C            2.13115201645684        2.13810382135192       -1.28516236574723
C            2.79963058568630        1.21751864079997       -0.48898050721994
C           -0.00289140769155        0.01931818940794       -0.09565254426522
C            0.00854322356889        1.16400070023111        0.67240809959528
N            0.02039260879486        2.13658644521095        1.30654534354902
C           -1.23476962340197       -0.64971102536270       -0.44027085467597
N           -2.44187106038332       -0.00827021519741       -0.12981933970977
C           -3.46527158693907       -0.54313967495385        0.62009089890730
C           -3.56814946803498       -1.79125672114010        1.22059457302957
C           -4.71410293055934       -2.07277077479007        1.93502865157068
C           -5.75079718737509       -1.13981243931318        2.07813739839632
C           -6.95432594647423       -1.48804198270937        2.84372328219429
C           -7.53016077105429       -2.75251054461414        2.72949089236946
C           -8.66591672621349       -3.07686760234718        3.44685482059874
C           -9.24339750146867       -2.14732645913174        4.29593725318067
C           -8.67843325804166       -0.88878966139367        4.42028162879628
C           -7.54657423232744       -0.55988915354345        3.69888553534373
C           -5.62765981644122        0.12108892197590        1.49758161715996
C           -4.49100321970083        0.42116555946001        0.77036013096786
C           -4.04900475756023        1.59579842807057        0.06433212579208
C           -4.60806664425105        2.84087656892172       -0.15403647520437
C           -3.90490767409721        3.77794119331348       -0.90861148798559
C           -4.46286549813471        5.11680209992445       -1.13447040796115
C           -5.82060133467078        5.28970414018211       -1.39922354809578
C           -6.34148690278599        6.55206690308596       -1.61137475133321
C           -5.51787581665284        7.66435648047296       -1.55578621680158
C           -4.16791808275074        7.50529745327949       -1.28907154047923
C           -3.64322425488454        6.24354259730339       -1.08362717639607
C           -2.66285985467144        3.43361281461268       -1.46059466307929
C           -2.09602303989110        2.19261476199921       -1.26726147752388
C           -2.77893034423265        1.27995393464663       -0.47403334639273
C           -1.23195898122857       -1.89466319575159       -0.99293835672036
C           -1.17207352245302       -4.43902232016143       -2.51090986987865
C           -1.17268608597120       -5.69988407363327       -3.04920986675150
H            2.02202698095582       -8.18973306575467       -3.90409337344268
H            1.43081320758031       -8.84466510769582       -2.36672394259587
H            1.09609649073173       -9.68634527041944       -3.87585375776953
H           -2.20320748035796       -8.24935251493860       -3.05935630545202
H           -1.05190756760001       -8.80649464118816       -1.84719354445414
H           -1.28716538546680       -9.72929650162108       -3.33515888482031
H           -1.35131819432654       -7.30715165029000       -5.27632382045103
H            0.38226728496155       -7.21881317965506       -5.57904879173084
H           -0.43358014331841       -8.78562234241851       -5.55436009525815
H            1.96308254899674       -6.63003486338568       -2.23802655998773
H            1.98096040359983       -4.44041237501876       -1.28218108746352
H            2.12972827125086       -2.39174524324404       -1.22343526633814
H            2.71705774907872       -2.56004774739613        1.16595240828999
H            4.74904183506704       -3.11126575928885        2.43584932643541
H            7.02562839012595       -3.61204402187646        2.05898657398495
H            9.02724402501362       -4.22758857988418        3.34203063514454
H           10.09751242190067       -2.58047236968212        4.83587401054762
H            9.14290397103463       -0.31417240399683        5.04427112274228
H            7.12853138332856        0.29746655634750        3.77926750135487
H            6.44425188149993        0.72245732286812        1.56169338570081
H            5.63301886011535        2.97306264341915        0.22147193633596
H            6.54832743374570        4.26477453291656       -1.53941754675858
H            7.52667269425937        6.48277007070614       -1.93530063719398
H            6.10684169323954        8.49873252046531       -1.84133164328852
H            3.70133764663938        8.28073433398225       -1.33519388429152
H            2.72436381689106        6.06452993836341       -0.91646947390372
H            2.22318215210724        4.09167909676496       -2.11492174923895
H            1.17900458402323        1.90265406060910       -1.73340954353070
H           -2.77208424015219       -2.51613690952056        1.14341555657592
H           -4.80637713231095       -3.03191206057355        2.42215492940684
H           -7.09566639861575       -3.47625006190236        2.05527044891014
H           -9.10472028930177       -4.05862426582104        3.34230793014307
H          -10.12927121069631       -2.40268703759623        4.85832611957032
H           -9.12128206164024       -0.16140036095036        5.08512276830100
H           -7.09965222245135        0.41662296869994        3.81581559839685
H           -6.41879458760262        0.84847245758950        1.59818491170441
H           -5.56587618174461        3.09269568906556        0.27541874404495
H           -6.46526923480466        4.42496867281748       -1.46230506999005
H           -7.39443014824366        6.66990872565727       -1.82304931308259
H           -5.92656168822893        8.65065085515684       -1.71876820751056
H           -3.52225928860391        8.37002601852921       -1.23836365620594
H           -2.59422307151583        6.12660838924361       -0.85463745483202
H           -2.14984142316935        4.15555058459270       -2.07791176039757
H           -1.15287048602501        1.94014330649743       -1.72521601829880
H           -2.18317305127844       -2.35201901949558       -1.21489450117292
H           -2.05693982697858       -3.83143581258193       -2.62408893783413
H           -2.06880658552688       -6.04235919657117       -3.54617359494577
