87
 energy: -116.963100866725 gnorm: 0.000054183334 xtb: 6.7.1 (edcfbbe)
C           -2.73056931351828        5.50937991697550        1.55530062161586
C           -2.73248786735239        4.93918178231919        0.13407806378699
C           -2.51388650454017        3.46027666734380        0.13349963366007
C           -3.48015608815413        2.46581618109259        0.07408133374917
C           -4.95254342499600        2.64197711016323       -0.11379264774151
C           -5.35007209128445        2.49892173421021       -1.58571210755059
C           -2.79333150460157        1.23314190381781        0.13509824977206
C           -3.42400493360393       -0.03659998438952        0.15985639601919
C           -2.82825350768854       -1.25036571285304        0.15965085863947
N           -1.41385568281717       -1.45503788293370       -0.03604481669094
C           -1.18983418365684       -2.84367544749444        0.28297199371701
C            0.03444147078958       -3.39989803450504        0.42392881043687
C            1.28632827681872       -2.73458795849345        0.44904918865019
N            1.46063431563269       -1.37976270344536        0.49694465452118
C            2.80581362751452       -1.16183890205886        0.60596200070033
C            3.43219225137178        0.11015604666125        0.63878338193653
C            2.83433112230971        1.32212152917768        0.67518541642041
N            1.41439265568737        1.51974466412770        0.83538422218334
C            1.19741226752799        2.91449188965540        0.53866876200168
C           -0.02111397257746        3.46981276268953        0.35450688210972
C           -1.27100336357225        2.80504907649580        0.27855112153075
N           -1.44964547464175        1.44980836825029        0.26492307800606
C            2.48183556640081        3.55853379942222        0.40704907779355
C            2.64108782989861        5.02179693422536        0.15477159810184
C            2.45877238085211        5.36925806276899       -1.32540550114724
C            3.45602200551063        2.61102943231537        0.48972603651435
C            4.93155740698892        2.79410452232073        0.35032638352186
C            5.40666564772065        2.52502596509756       -1.08016371467626
C            3.49893170231349       -2.39303565373790        0.61419863034634
C            4.98102204711813       -2.56440631883585        0.71209799185088
C            5.65154530714610       -2.50247651397180       -0.66312874071123
C            2.53543028486801       -3.38902838076738        0.53395824146967
C            2.74955637305176       -4.86666810914323        0.47062033405974
C            2.62950432153828       -5.39837692721381       -0.96022236182770
C           -2.46920199067591       -3.47696359479978        0.49224172718079
C           -2.62316017183746       -4.93721545107975        0.76278558094156
C           -2.52991404069160       -5.75527474995231       -0.52837017441439
C           -3.44339682926511       -2.52928414487279        0.42024879588799
C           -4.91528967978405       -2.70823122980433        0.59719626799217
C           -5.63825554199075       -2.76370659231022       -0.75154596237495
Pt           0.00317121085152        0.03342538228177        0.38969171420332
H           -3.51815005869064        5.04729147634265        2.14720921663800
H           -2.89573735214122        6.58503991994871        1.53592959902653
H           -1.77884541428158        5.31094748858930        2.04393932070470
H           -3.69007272270325        5.16308793821095       -0.33997364409435
H           -1.95404743214492        5.43288276816392       -0.45403350519444
H           -5.49715759258218        1.90367017529984        0.48075083964977
H           -5.24833272249625        3.63035773159937        0.24316318461652
H           -5.06584408177363        1.51837873871527       -1.96185567915647
H           -6.42473260725790        2.62179848874082       -1.70657210880637
H           -4.84403596231974        3.25163231418545       -2.18698292060205
H           -4.49890277274275       -0.01584584538163        0.24876599479611
H           -1.18547634718891       -1.29634908067098       -1.02726386817158
H            0.07476229835803       -4.46334866928565        0.60024758869613
H            4.50841232686725        0.09666894120802        0.57026463965874
H            1.16404350309037        1.34525049005618        1.81926353912017
H           -0.05564893511517        4.53622708167177        0.19592556792728
H            3.63504981480074        5.33927315911425        0.47468523038760
H            1.90598806651129        5.57227515138157        0.74677517604897
H            2.56053472078261        6.44180921648898       -1.47519203655796
H            1.47654187838354        5.05894745432449       -1.67347345728422
H            3.20770649968117        4.86244097916719       -1.92867216262239
H            5.44519446171269        2.11432738197611        1.03417214962808
H            5.19934352105747        3.81485174210122        0.62848293048048
H            6.48854396630093        2.61858287943399       -1.14150142806922
H            5.12317809200143        1.52344116700056       -1.39399656796188
H            4.95792743455728        3.23598512642105       -1.76915554554335
H            5.40356419851697       -1.78901983600506        1.35622603111271
H            5.20628258148177       -3.52905341918314        1.17315123651297
H            5.44306923595500       -1.55104870252023       -1.14757973723256
H            6.72975163611348       -2.61696765223447       -0.56805763291904
H            5.27406741896671       -3.29730795573475       -1.30233564157471
H            2.01967565110519       -5.37726123614263        1.10568708857810
H            3.74287067241077       -5.10538044850844        0.85589883807236
H            2.78584693151119       -6.47521629634990       -0.98222247066157
H            1.64425443770601       -5.17984608395242       -1.36641299537510
H            3.37117074522622       -4.92749970615719       -1.60176878183067
H           -3.58852637859487       -5.12478504805375        1.23464444240186
H           -1.84368019108492       -5.26253312931479        1.45517621720993
H           -3.32193297787860       -5.46811791132393       -1.21607782798285
H           -1.57386527206309       -5.58823434629857       -1.01881412869409
H           -2.62858025131585       -6.81612627943696       -0.31043207505802
H           -5.11029707974518       -3.63158643228933        1.14421518949194
H           -5.31305539854051       -1.88013406182929        1.18767567058142
H           -6.70899569483802       -2.87921910918258       -0.60027988826945
H           -5.27916196417010       -3.60526639271343       -1.33928633565230
H           -5.46337078812300       -1.85164360639963       -1.31725927418622
