  87
       -116.90165156
 C          2.8746230883       -5.2651732310       -1.5805186332
 C          2.3992077289       -5.0906460850       -0.1361962370
 C          1.3166358053       -4.0668421826       -0.0428462710
 C         -0.0352286675       -4.2741593034        0.0238027901
 C         -0.7616766955       -5.5760614288        0.1042106593
 C         -1.1630994293       -5.9003079671        1.5451540392
 C         -0.6535212533       -2.9805363849        0.0664138993
 C         -2.0299851150       -2.7796332825        0.0965578108
 C         -2.6928966762       -1.5665304913        0.1215737152
 N         -2.0320541215       -0.3127466791        0.3626123757
 C         -3.0381678102        0.6909933284        0.1475906562
 C         -2.7681570472        2.0467702552        0.1333180323
 C         -1.5161030665        2.6511137188        0.0851445622
 N         -0.3070929291        2.0128500788        0.0004268815
 C          0.6545704281        2.9841639639       -0.0916873445
 C          2.0304496422        2.7830989229       -0.1295560366
 C          2.6939014854        1.5700779055       -0.1341831078
 N          2.0362601231        0.3117053121       -0.3565143962
 C          3.0413052691       -0.6869559547       -0.1137680702
 C          2.7726960491       -2.0431871429       -0.0969545298
 C          1.5194870519       -2.6471837521       -0.0736039823
 N          0.3096839838       -2.0090485048       -0.0010101583
 C          4.2666836496       -0.0460632678        0.1344937000
 C          5.5596403482       -0.7510559161        0.3811346795
 C          6.2206493578       -1.1654542930       -0.9365013808
 C          4.0571254066        1.3323184134        0.1094222673
 C          5.0654557701        2.3948668971        0.3975435660
 C          5.0204114338        2.8120854369        1.8697463333
 C          0.0357072841        4.2778014952       -0.0562905839
 C          0.7583561339        5.5799360999       -0.1631043415
 C          1.1243434037        5.8943335068       -1.6156373229
 C         -1.3146999836        4.0705114621        0.0334542744
 C         -2.3956472522        5.0965209855        0.1229824418
 C         -2.8442216814        5.3066620691        1.5711112754
 C         -4.2696504149        0.0555860819       -0.0848022343
 C         -5.5549191151        0.7656860173       -0.3549396802
 C         -5.6617850995        1.1742059977       -1.8263457167
 C         -4.0560736032       -1.3220217934       -0.1150957850
 C         -5.0810595699       -2.3802431438       -0.3578761035
 C         -5.5944164149       -2.9627767351        0.9617896082
 Pt         0.0011928072        0.0022084783        0.0001156107
 H          3.6644702103       -6.0111927151       -1.6363024707
 H          3.2548960694       -4.3243283405       -1.9717232854
 H          2.0484175851       -5.5856372446       -2.2112554646
 H          2.0290857267       -6.0459878225        0.2386859399
 H          3.2443974435       -4.7960281262        0.4903774599
 H         -1.6562604737       -5.5414898322       -0.5221501450
 H         -0.1224674681       -6.3727402734       -0.2790350734
 H         -1.8071110280       -5.1205021199        1.9449570053
 H         -1.6940026770       -6.8488745334        1.5904500130
 H         -0.2788753131       -5.9663018054        2.1752072127
 H         -2.6460467089       -3.6599553512        0.0221658549
 H         -1.7499607894       -0.2815729652        1.3559932576
 H         -3.6214055267        2.7022132489        0.0765653284
 H          2.6476469042        3.6644214333       -0.0728639522
 H          1.7610352573        0.2598423527       -1.3508696477
 H          3.6240257301       -2.6988231720       -0.0227249107
 H          5.3811058073       -1.6389503153        0.9907671942
 H          6.2358852289       -0.0976310138        0.9331942204
 H          7.1599854856       -1.6795473200       -0.7467442283
 H          6.4219802918       -0.2900467138       -1.5500670940
 H          5.5670907431       -1.8305895598       -1.4960248371
 H          4.8681239627        3.2667453402       -0.2298845683
 H          6.0639858592        2.0286377209        0.1550311186
 H          5.7509717909        3.5929117829        2.0681708025
 H          4.0310572433        3.1840906730        2.1243836267
 H          5.2379950907        1.9603473425        2.5099542841
 H          0.1273751616        6.3784555663        0.2300111217
 H          1.6679036852        5.5511297948        0.4415659080
 H          0.2251269940        5.9534582885       -2.2248815287
 H          1.6514938531        6.8438194263       -1.6806684322
 H          1.7606627668        5.1128292057       -2.0248010213
 H         -3.2523498542        4.7873575549       -0.4805358053
 H         -2.0324522850        6.0422372526       -0.2819764007
 H         -3.6321797413        6.0550368304        1.6228163339
 H         -3.2181476850        4.3761290074        1.9920359583
 H         -2.0063345511        5.6415890754        2.1785578553
 H         -5.6187646274        1.6577643961        0.2719325196
 H         -6.3930978264        0.1165023745       -0.0977040091
 H         -4.8352620655        1.8273698338       -2.0957186411
 H         -5.6224520358        0.2953852159       -2.4657766999
 H         -6.5973497945        1.6974624542       -2.0102435298
 H         -5.9184933460       -1.9600518871       -0.9156924156
 H         -4.6455263688       -3.1792997655       -0.9607413180
 H         -6.0478569278       -2.1823045952        1.5687169290
 H         -4.7753896839       -3.4011824793        1.5270628104
 H         -6.3392193482       -3.7328213480        0.7739545079
