87
 energy: -116.942745271153 gnorm: 0.000029594096 xtb: 6.7.1 (edcfbbe)
C            1.81385487670796        5.76849385743441        1.56322034442376
C            1.43463896851646        5.45669047354707        0.11268870460519
C            0.55984201979403        4.24892772531179        0.02351953416353
C           -0.80759368700240        4.20879659842440       -0.05847329837834
C           -1.75164136158370        5.36196242362730       -0.16199079758088
C           -2.15693739227084        5.62534618142914       -1.61510744914141
C           -1.18381305732173        2.82480586906821       -0.09023739789281
C           -2.50111881892865        2.37657455017655       -0.12048095965224
C           -2.93721539710451        1.06289485050481       -0.12500511204549
N           -2.06170667539996       -0.05299947052804       -0.34727421507190
C           -2.86775674206766       -1.22054707214708       -0.13126696741065
C           -2.35618371633291       -2.50637748632384       -0.12937922707156
C           -1.01560617608149       -2.87730121028492       -0.09450115561642
N            0.05928946447747       -2.03015941116873       -0.00585105628219
C            1.18245284114246       -2.81264047108543        0.07732078923249
C            2.49866130661991       -2.36345171659134        0.12166437920943
C            2.93463642918411       -1.05028674999040        0.13418086826997
N            2.05937402253590        0.06796806740704        0.34284365166638
C            2.86936916879390        1.23342375229764        0.12632781879188
C            2.35659349182309        2.51886388583584        0.11096687322977
C            1.01558423171065        2.88941672101799        0.07017444430968
N           -0.06038869112149        2.04251843503384       -0.00660866618496
C            4.19396627845021        0.82535020224314       -0.11063084584138
C            5.34512431955074        1.74949437429451       -0.34070361157323
C            5.94683257237992        2.22941072180987        0.98400026128269
C            4.23591833123749       -0.56929335713076       -0.09479591813939
C            5.42706875517092       -1.42839141929080       -0.36808921497810
C            5.49344855657898       -1.83940311057363       -1.84214672579288
C            0.80767504610773       -4.19676424552187        0.02972209952957
C            1.75396113861260       -5.34904339191740        0.12275409025814
C            2.16669155339648       -5.62124761858617        1.57216908996252
C           -0.55926151753330       -4.23701185311360       -0.05927728358077
C           -1.43581799549008       -5.44226869415616       -0.16324454290714
C           -1.83947079688010       -5.71968397249022       -1.61422002498326
C           -4.19193774089698       -0.81693769986843        0.11398063670202
C           -5.32390237214552       -1.74648140483697        0.40726975351721
C           -5.32831812952030       -2.17075841146583        1.87908968976246
C           -4.23236440385962        0.57782378544210        0.12827747119952
C           -5.43341849299981        1.43243060918042        0.37149136684567
C           -6.08307322422103        1.86628364669981       -0.94640776740856
Pt          -0.00078688506290        0.00625868875389       -0.00426469616198
H            2.45338556216156        6.64760767009124        1.60870853949728
H            2.34279998814214        4.92833702712371        2.00779715669081
H            0.91985524486998        5.95751043747412        2.15393854174393
H            0.91167557467539        6.31455182603581       -0.31363050528770
H            2.34343845542850        5.30154919220107       -0.47406975842785
H           -2.64641936881004        5.16415450937888        0.43349326373742
H           -1.27733215485272        6.25613975944652        0.24607119001633
H           -1.27957486971084        5.85988497502424       -2.21438993082551
H           -2.63430902474470        4.74622048759739       -2.04243634975714
H           -2.85072886329232        6.46160279230412       -1.67123242154377
H           -3.26661027620973        3.13317684365150       -0.06278948608994
H           -1.73261000764264       -0.03972348466180       -1.32425674817474
H           -3.07748639592814       -3.30573842296723       -0.07474082826485
H            3.26602743778494       -3.11871389586112        0.06703161897617
H            1.72437848985647        0.06231444468924        1.31810720164701
H            3.07679070427201        3.31871341060366        0.05358455201451
H            5.01027960296890        2.61258309013911       -0.91971126493963
H            6.11488872695920        1.23839430177477       -0.92007082049466
H            6.30563244652932        1.38335957437701        1.56621499583673
H            5.19898827731287        2.75550054669317        1.57300207263236
H            6.78043765666594        2.90280055739092        0.79848433406796
H            5.38140230171289       -2.32525272776282        0.25393095536954
H            6.33583883920610       -0.88569632640587       -0.10415555248542
H            6.36991139276774       -2.45750798929947       -2.02372068336210
H            4.60475377729929       -2.40195535907646       -2.11853271653668
H            5.54922227635807       -0.95895660868095       -2.47843146743522
H            1.27925667446979       -6.24143652491030       -0.28881413104622
H            2.64570891536924       -5.14619476013086       -0.47571494028673
H            2.65072651358174       -4.74659006818081        2.00142551963145
H            1.29179438651161       -5.85544859900530        2.17516597673477
H            2.85701159847413       -6.46094331351172        1.61962417691870
H           -2.33488750106972       -5.30072900297070        0.44195713332015
H           -0.90662264453222       -6.31007465654803        0.23413797539251
H           -0.95522389755095       -5.88998919090734       -2.22498097900349
H           -2.47560983468628       -6.60069254668259       -1.66989293277794
H           -2.38034348895134       -4.87152263150949       -2.02848813345470
H           -5.23996637929411       -2.63471939444461       -0.22317050372168
H           -6.26955488227998       -1.25733066805941        0.16984520582168
H           -6.15501156156503       -2.84983493671928        2.07542781174449
H           -4.39604898668198       -2.67114929113353        2.13086525834665
H           -5.43082129354991       -1.30039151938262        2.52338229007877
H           -6.16186437609333        0.87956032060919        0.96579599609252
H           -5.14253114731417        2.31788834923453        0.94029727557341
H           -6.95603338193453        2.48510469804023       -0.75186093123099
H           -6.39438137282957        0.99602988569213       -1.52021867896883
H           -5.37898535349453        2.43672951546853       -1.54791879196885
