  87
       -116.92385853
 C          1.9178884335        5.7468688199        1.3917045859
 C          1.4504492644        5.4179921769       -0.0280506124
 C          0.5730922923        4.2089541660       -0.0483476053
 C         -0.8129773317        4.1706131671       -0.0460514237
 C         -1.7571289833        5.3253363608       -0.1296254151
 C         -2.2618568847        5.5293604221       -1.5601173512
 C         -1.1769953392        2.8060752533       -0.0428593230
 C         -2.5130433794        2.3354633115       -0.0045917711
 C         -2.9296404177        1.0530016371       -0.0907743682
 N         -2.0617557623       -0.0610405366       -0.3884734663
 C         -2.8632943362       -1.2331001098       -0.1319418297
 C         -2.3728626215       -2.4907531424       -0.0692183925
 C         -1.0117915172       -2.8830708580       -0.0772751934
 N          0.0571762322       -2.0355659451       -0.0063189814
 C          1.1748339833       -2.8192841564        0.0369879848
 C          2.5105826417       -2.3478371940        0.0639355823
 C          2.9272756401       -1.0666833348        0.1644751294
 N          2.0543033449        0.0557491852        0.4126171893
 C          2.8618495987        1.2190965305        0.1323421510
 C          2.3724043193        2.4724421276        0.0120146321
 C          1.0117318968        2.8675368614        0.0098210739
 N         -0.0600318086        2.0212018317       -0.0008852457
 C          4.2241149807        0.7909627069       -0.0655399224
 C          5.3587506827        1.7382688095       -0.2738032291
 C          5.7877463647        2.3805799410        1.0479175234
 C          4.2652242498       -0.5677972702       -0.0334006208
 C          5.4469668315       -1.4507960058       -0.2644021132
 C          5.5546224331       -1.8545361286       -1.7369611898
 C          0.8148371813       -4.1839426235       -0.0266641838
 C          1.7580447681       -5.3414303247        0.0245975842
 C          2.2053571273       -5.6348940242        1.4586730375
 C         -0.5703575302       -4.2249413918       -0.0648147297
 C         -1.4429960483       -5.4334951382       -0.1636226607
 C         -1.8858396319       -5.6853522782       -1.6069121153
 C         -4.2196338394       -0.8132555815        0.1140192321
 C         -5.3380460372       -1.7649112082        0.3841327737
 C         -5.3568928106       -2.1879595992        1.8551448397
 C         -4.2563003443        0.5456887807        0.1528440634
 C         -5.4358566899        1.4233784054        0.4119243201
 C         -5.9662324207        2.0323999303       -0.8884501071
 Pt        -0.0023140971       -0.0076416826        0.0054467950
 H          2.5581715219        6.6266776309        1.3916067509
 H          2.4734523280        4.9112642849        1.8118903555
 H          1.0611236807        5.9403907120        2.0332854532
 H          0.9018791396        6.2704387615       -0.4317361371
 H          2.3224080358        5.2572495679       -0.6671510664
 H         -2.6098573419        5.1603363130        0.5342012010
 H         -1.2516707548        6.2321872442        0.2057071719
 H         -1.4252749738        5.7159687795       -2.2299315716
 H         -2.7830384236        4.6404765753       -1.9089207025
 H         -2.9435240719        6.3761134786       -1.6107321901
 H         -3.2650044592        3.0892719653        0.1644318893
 H         -1.8325269059       -0.0358495174       -1.3935448270
 H         -3.0840049541       -3.2902686229        0.0632839143
 H          3.2695579947       -3.1021156164       -0.0682530193
 H          1.8129796041        0.0631687438        1.4155586325
 H          3.0840403942        3.2653931593       -0.1517046723
 H          5.0568362072        2.5185170652       -0.9753610585
 H          6.2058801630        1.2080211063       -0.7095939316
 H          6.1156922304        1.6166175062        1.7495897456
 H          4.9579571782        2.9217409614        1.4961319508
 H          6.6078734590        3.0753650395        0.8841520206
 H          5.3587592113       -2.3473536575        0.3526624214
 H          6.3569578214       -0.9283878990        0.0345567098
 H          6.4134780493       -2.5035250243       -1.8915073886
 H          4.6569634637       -2.3804020199       -2.0520718530
 H          5.6676558559       -0.9720557488       -2.3623308502
 H          1.2686164568       -6.2254852539       -0.3869553657
 H          2.6360845696       -5.1360291103       -0.5931661058
 H          2.7050608332       -4.7679871314        1.8854348920
 H          1.3437107975       -5.8690267228        2.0799950349
 H          2.8907767538       -6.4798612457        1.4823585343
 H         -2.3261280192       -5.3101787701        0.4686916333
 H         -0.8977239613       -6.3048245083        0.2024359218
 H         -1.0173206614       -5.8316604363       -2.2454308748
 H         -2.5143885617       -6.5716550210       -1.6668213970
 H         -2.4461790523       -4.8336256347       -1.9867446951
 H         -5.2251836771       -2.6492103781       -0.2464187033
 H         -6.2888832068       -1.2937696837        0.1307352350
 H         -6.1647614022       -2.8925599097        2.0382297972
 H         -4.4144008130       -2.6572296280        2.1259862340
 H         -5.4997194098       -1.3201034863        2.4947891268
 H         -6.2275591218        0.8444233434        0.8881291466
 H         -5.1491309351        2.2238732459        1.0969655824
 H         -6.8203413030        2.6741015164       -0.6859374818
 H         -6.2778073224        1.2468233440       -1.5734584820
 H         -5.1949801249        2.6238736489       -1.3757645523
