  53
        -86.33961170
 O          3.8464991046       -2.1905779813        0.9026112214
 C          4.3227806777       -1.1559553199        0.4529160334
 C          5.7833900967       -0.9615789191        0.4040792507
 C          6.5809631412       -1.9943592913        0.9153488592
 C          7.9533982876       -1.9149866373        0.9155250458
 C          8.5768299423       -0.7846714382        0.3953395735
 C          7.8183472470        0.2452680668       -0.1134576350
 C          6.4245875398        0.1663859352       -0.1122254635
 S          5.5809171284        1.5415260658       -0.7863909361
 C          3.8943154222        1.1194605544       -0.6028441373
 C          2.9710843970        2.0650257230       -1.0515398292
 C          1.6207969857        1.8285388935       -0.9535090869
 C          1.1423776031        0.6326872747       -0.4032421208
 C         -0.2989288104        0.3733631488       -0.2986888442
 C         -0.7968021035       -0.9142009384       -0.5464936837
 C         -2.1416944057       -1.2068383536       -0.4650234294
 C         -3.0121142299       -0.1854011531       -0.1088114104
 C         -2.5313271053        1.1237560601        0.1284523934
 C         -1.1765699879        1.3982369899        0.0323695198
 C         -3.6806626499        1.9315731549        0.4268161939
 C         -3.8487391496        3.2702113675        0.7557356315
 C         -5.1243532536        3.7337669234        1.0072923323
 C         -6.2221800303        2.8778185350        0.9484058506
 C         -6.0802111976        1.5424978256        0.6232341755
 C         -4.8031805894        1.0757425957        0.3461786640
 N         -4.3831606954       -0.1995993953        0.0227714203
 C         -5.2130501809       -1.3182786061       -0.1462708145
 C         -4.9315987972       -2.5054242292        0.5230906747
 C         -5.7504793485       -3.6059231103        0.3491967315
 C         -6.8566552116       -3.5296745463       -0.4807492021
 C         -7.1402608583       -2.3473143899       -1.1440098868
 C         -6.3213509142       -1.2447375940       -0.9847863013
 C          2.0683917609       -0.2973795695        0.0358576668
 C          3.4473361439       -0.0825474199       -0.0507468317
 H          6.0677544613       -2.8579771273        1.3113564909
 H          8.5439377737       -2.7239590888        1.3170521236
 H          9.6537248450       -0.7113273379        0.3903486827
 H          8.2865287295        1.1292653809       -0.5200087519
 H          3.3386629142        2.9852713433       -1.4806119891
 H          0.9229761537        2.5646454622       -1.3229618149
 H         -0.1061324478       -1.6921916968       -0.8343922727
 H         -2.5039526240       -2.1994722524       -0.6853238426
 H         -0.8095854991        2.3928304260        0.2355683534
 H         -2.9957581085        3.9291136715        0.8175065752
 H         -5.2776805810        4.7713848913        1.2633322701
 H         -7.2061897773        3.2658592004        1.1659749397
 H         -6.9349270233        0.8835451306        0.5976017901
 H         -4.0807094503       -2.5535288174        1.1862820441
 H         -5.5274515877       -4.5246393672        0.8710019780
 H         -7.4957394534       -4.3897279012       -0.6108790393
 H         -7.9985795811       -2.2849130605       -1.7963068032
 H         -6.5252247293       -0.3278899891       -1.5177331993
 H          1.7492091353       -1.2265697995        0.4827029301
