  53
  -95.7388275400000        1.00000000000000      !
 O         -0.6140946273        1.0863394881       -1.7915937603
 C         -1.5936539854        0.8262151497       -1.1064029100
 O         -2.8064995990        1.0605879289       -1.6667921672
 C         -3.9570342501        0.7728193583       -1.0181268894
 C         -5.1593330770        1.0775240053       -1.6534713653
 C         -6.3513542315        0.7792497542       -1.0293565044
 C         -6.3619937751        0.1751679047        0.2256297588
 C         -5.1786389452       -0.1294213529        0.8571249943
 C         -3.9569267207        0.1685482837        0.2440822149
 C         -2.6807992916       -0.1078292451        0.8718778884
 O         -2.7338704430       -0.7092406804        2.0515686523
 C         -1.5349480924        0.2846134841        0.2256590049
 C         -0.1682477062        0.1580775974        0.8759178316
 C          0.7115687272        1.3693704231        0.6336080097
 C          0.1131876166        2.6470039430        0.6434292270
 C          0.8612905431        3.7758373270        0.4837299592
 C          2.2599954413        3.7013339365        0.3202248116
 C          3.0647817059        4.8452345560        0.1463406603
 C          4.4198517807        4.7292438407        0.0079673723
 C          5.0296263966        3.4654606531        0.0385949627
 C          4.2752092082        2.3381305532        0.2057182719
 C          2.8751762913        2.4246302651        0.3487118400
 C          2.0732331063        1.2775931262        0.5172753155
 C          0.4707256008       -1.1782487172        0.5474389183
 C          1.1648351917       -1.4699201964       -0.6010298281
 O          1.3267190371       -0.6723447340       -1.6399945414
 C          1.8169242127       -2.7628088898       -0.6943465773
 C          2.6123157080       -3.1202913063       -1.7883664741
 C          3.2318748364       -4.3478073736       -1.8224065159
 C          3.0699856972       -5.2438263219       -0.7685469811
 C          2.2876825753       -4.9142192115        0.3171152949
 C          1.6579718329       -3.6717280788        0.3571169053
 O          0.8812620368       -3.3886595374        1.4273444417
 C          0.2692518208       -2.1886402389        1.5538998390
 O         -0.4524589777       -2.0342082379        2.5332404813
 H         -5.1277888910        1.5414754456       -2.6261109145
 H         -7.2832811499        1.0146115264       -1.5201023619
 H         -7.3024210472       -0.0542266747        0.7022862593
 H         -5.1621386642       -0.5954455786        1.8293508540
 H         -1.8663625604       -1.0926293829        2.3458227660
 H         -0.3353202798        0.1427357831        1.9636907215
 H         -0.9560248836        2.7257953297        0.7817057153
 H          0.3884301643        4.7475798798        0.4861228098
 H          2.5899368062        5.8158949205        0.1239112574
 H          5.0322175085        5.6093222548       -0.1244539832
 H          6.1017973955        3.3923649848       -0.0729160448
 H          4.7401301923        1.3624630601        0.2263640880
 H          2.5723115868        0.3197414531        0.5565339590
 H          0.7350479145        0.1284493467       -1.6217086078
 H          2.7245282623       -2.4090967552       -2.5910452566
 H          3.8459251227       -4.6188308523       -2.6672728350
 H          3.5588045371       -6.2053983883       -0.8009583153
 H          2.1459953734       -5.5934003833        1.1422535508
