  72
       -110.13345282
 C          1.7835774476        1.2018603427        3.2219010531
 C          2.4771185915        1.9136774309        2.2576057720
 C          2.7508597867        1.3349453598        1.0195370324
 C          3.3963636416        2.0915116568       -0.0689618496
 C          4.5160019210        2.8767773393        0.1837226862
 C          5.1440480772        3.5692944432       -0.8356777544
 C          4.6584823735        3.4847960263       -2.1292673108
 C          3.5408835144        2.7130940657       -2.3952129681
 C          2.8960669381        2.0209512622       -1.3795923281
 C          1.6954240769        1.2059506630       -1.6721417412
 C          1.8092446971        0.0302633011       -2.4083753783
 C          0.7300427861       -0.8302658190       -2.5062796765
 C         -0.4735745366       -0.5169012163       -1.9037807881
 C         -0.6284711883        0.7061058873       -1.2531024560
 N         -1.8694468179        1.0518833095       -0.7077161300
 C         -3.0941414805        0.8123862280       -1.3038999446
 C         -3.3884299565        0.3361133297       -2.5742694762
 C         -4.7176596312        0.2204191900       -2.9331621509
 C         -5.7428216055        0.5793874143       -2.0611908553
 C         -5.4584893678        1.0908169441       -0.8112805381
 C         -4.1292148468        1.2172536193       -0.4310303417
 C         -3.4909094540        1.7303626723        0.7470001304
 C         -3.9802361892        2.2525822686        1.9368770888
 C         -3.0807516369        2.6528039055        2.9041819888
 C         -1.7100201421        2.5230647594        2.6953650320
 C         -1.2010207493        2.0058161699        1.5192040415
 C         -2.0975758355        1.6176282932        0.5330660643
 C          0.4628335289        1.5616967018       -1.1406677898
 C          2.3436442271        0.0263998986        0.7967603055
 C          1.5723642365       -0.6554609734        1.7277659437
 N          1.0195287677       -1.8911973315        1.3495908000
 C          1.6918040610       -2.8735405793        0.6509812405
 C          3.0580171977       -3.0824164611        0.5285647953
 C          3.4806277635       -4.1734948596       -0.2063858624
 C          2.5707999937       -5.0454674253       -0.8010226077
 C          1.2100506281       -4.8518063223       -0.6684979643
 C          0.7614377727       -3.7600536453        0.0627267383
 C         -0.5420213502       -3.2563301272        0.3937083685
 C         -1.8311427311       -3.6494016333        0.0578946095
 C         -2.8936979501       -2.8898565973        0.5062659857
 C         -2.6829310528       -1.7597518740        1.2927077228
 C         -1.4103222512       -1.3566114944        1.6495829848
 C         -0.3386202459       -2.1043260922        1.1872846263
 C          1.3005219304       -0.0696947457        2.9585062851
 H          1.5874497881        1.6554811035        4.1822469198
 H          2.7835008467        2.9304666827        2.4539996987
 H          4.9096489114        2.9231486910        1.1889835033
 H          6.0160813441        4.1691190621       -0.6216283374
 H          5.1487545461        4.0182527590       -2.9299912363
 H          3.1508240612        2.6496576697       -3.4010543185
 H          2.7588860643       -0.2312947337       -2.8523285616
 H          0.8374137946       -1.7699507703       -3.0277543426
 H         -1.2891150858       -1.2221646813       -1.9168069212
 H         -2.6082540048        0.0789584987       -3.2736169903
 H         -4.9670763918       -0.1517194211       -3.9159493946
 H         -6.7692983042        0.4691004935       -2.3774776641
 H         -6.2495325984        1.3946512908       -0.1422621731
 H         -5.0442703771        2.3380588000        2.0986966085
 H         -3.4388610769        3.0640601290        3.8361773598
 H         -1.0246694813        2.8299872689        3.4718612136
 H         -0.1372952627        1.8915741295        1.3938297710
 H          0.3586472401        2.5107645534       -0.6384691113
 H          2.5877516777       -0.4664970202       -0.1289739823
 H          3.7680703791       -2.4172285553        0.9972228986
 H          4.5389794322       -4.3567327117       -0.3200525895
 H          2.9405015623       -5.8873243237       -1.3674373823
 H          0.5063657231       -5.5346374099       -1.1206787165
 H         -1.9938479475       -4.5255060583       -0.5520020491
 H         -3.9033982645       -3.1695377478        0.2440640130
 H         -3.5311823598       -1.1810746305        1.6266292259
 H         -1.2624451662       -0.4760290090        2.2534325343
 H          0.7195560276       -0.6015826624        3.6959489797
