72
 energy: -110.064649281183 gnorm: 0.000061614409 xtb: 6.7.1 (edcfbbe)
C            1.83710196614023        1.04184292373573        3.29008276105347
C            2.41357350006674        1.81092266286182        2.31373045505206
C            2.52081453325730        1.34612699483152        0.96524808224464
C            3.07174217649988        2.13517976741595       -0.07453454321905
C            4.01335907418731        3.16794833849574        0.18855329788842
C            4.88079476680962        3.58871920826498       -0.77232810089053
C            4.83458105741205        3.03678037234466       -2.08111008894740
C            3.83906305129455        2.15595768989560       -2.41441263054565
C            2.86110112449645        1.78092268214530       -1.48347907239710
C            1.63048453821196        1.18134151261475       -1.90600862687357
C            1.57359277002651        0.23458125059498       -2.95567856989106
C            0.39174573717807       -0.39296285093429       -3.26990888902552
C           -0.78913155364738       -0.06355573129007       -2.61342711013522
C           -0.77563816417977        0.94558579110514       -1.63966269693206
N           -1.98908356210876        1.35646364682277       -1.06367005800603
C           -3.14906643486131        1.61358273719754       -1.76959660485591
C           -3.37275939679009        1.61378031583728       -3.14081850331964
C           -4.63839492400741        1.93854867959925       -3.59168883549430
C           -5.66334315439410        2.26967809395590       -2.70815678917136
C           -5.43942568463178        2.30600887682742       -1.34475793106658
C           -4.17579564065058        1.98418952441013       -0.86947358854065
C           -3.59219362086883        1.96154794858118        0.44349375771826
C           -4.09038649716984        2.23299998713705        1.70991582738235
C           -3.23845203400080        2.12912116869469        2.79353704522940
C           -1.91017371945607        1.74802960105209        2.62155018502069
C           -1.39449978179911        1.46369898906622        1.37050390386195
C           -2.23880887898509        1.58265713680277        0.27530312431827
C            0.41767314932856        1.53200655651346       -1.27195391426959
C            2.04073066523946        0.02990254280579        0.71938854260973
C            1.48143711979222       -0.73870541929468        1.71187523471664
N            1.05905049729057       -2.04725496454671        1.41867668978703
C            1.80791365760997       -3.00548276974465        0.76850139477926
C            3.13157459731593       -2.96019357340328        0.35013391772658
C            3.65549025705844       -4.08537109756302       -0.25809750962274
C            2.89030204333204       -5.23492492902022       -0.44362903788199
C            1.57895560908743       -5.29425829722627       -0.00959658523283
C            1.03076248318401       -4.17709210917260        0.60466708307088
C           -0.25589454707718       -3.89475959855527        1.18113374274074
C           -1.42863106949603       -4.62569395435709        1.30767159216692
C           -2.52039935043292       -4.02783449203891        1.91032943635247
C           -2.45410115183025       -2.71573160944968        2.37386195181594
C           -1.29645526952688       -1.96880103395782        2.26175247770295
C           -0.19178673524244       -2.56872732387689        1.67215625837757
C            1.35951594700113       -0.24149435809388        3.02077867782049
H            1.75382615787689        1.43093526320345        4.29506728208645
H            2.74498851148694        2.80739423650858        2.55826252766806
H            4.10721226626942        3.55968262527421        1.18994391999918
H            5.62964677664085        4.33281722715847       -0.54312783575083
H            5.54660378513722        3.36767319041564       -2.82193749918300
H            3.73745795307307        1.83065205269933       -3.44026659434157
H            2.48371810664669       -0.04731315227219       -3.46308855601221
H            0.37547223782114       -1.15815431198965       -4.03275026652695
H           -1.70675394135540       -0.58352594926918       -2.83857416170388
H           -2.58113836383570        1.38501302371017       -3.83774365686954
H           -4.83468572918879        1.94189913549130       -4.65392444182361
H           -6.63978769412127        2.51541534382727       -3.09881001652126
H           -6.22703017012533        2.58537178100212       -0.66112861030820
H           -5.12227778891165        2.52198661265269        1.84190875405904
H           -3.60424742074429        2.34309595036876        3.78703869331577
H           -1.26434066290466        1.67098040852887        3.48416454060544
H           -0.36902778287083        1.15410536707225        1.25599568108531
H            0.42695549781602        2.32270296473869       -0.53735467361322
H            2.15104549599815       -0.40023284038079       -0.26262283347478
H            3.73658270318614       -2.07924708496197        0.50269520932552
H            4.68231395073942       -4.07375851767842       -0.59332846199057
H            3.33474758034556       -6.09340987301493       -0.92542220652899
H            0.99239874508088       -6.19133634489677       -0.13998892328130
H           -1.48589045324084       -5.63839907310662        0.93749182411066
H           -3.44227524587082       -4.58040878436939        2.01745151325102
H           -3.32695121204083       -2.26820692650870        2.82645137133090
H           -1.26117323052414       -0.94796424107800        2.60707997567296
H            0.94710313841022       -0.85979156777069        3.80154906347212
