72
 energy: -110.173058530357 gnorm: 0.000038684668 xtb: 6.7.1 (edcfbbe)
C            1.35037729215717        0.68989893602256        3.37272977076973
C            1.24320742081835        1.93915167482729        2.78661025800716
C            1.52413316694946        2.10853564826955        1.43278234802320
C            1.42513192911841        3.43533816409199        0.79772833308895
C            2.02192550500853        4.53436877320094        1.40917115070177
C            1.99790800967015        5.78128626448551        0.81202533334729
C            1.37753651600298        5.94606725438298       -0.41538024258242
C            0.77561758936220        4.86370213261751       -1.03131157106895
C            0.78324418631573        3.60754173979131       -0.43529845988721
C            0.08959814128909        2.48636016652211       -1.10266565746084
C            0.48151642784347        2.07185397599911       -2.37216182208343
C           -0.15078557436091        1.00229266307700       -2.98076273612896
C           -1.19353562752587        0.35256070711278       -2.34643373349880
C           -1.62603470815157        0.79095200386723       -1.09712345362701
N           -2.71952089250267        0.16554155412608       -0.47832352958050
C           -3.92652017353505       -0.12294711874076       -1.08638829936103
C           -4.37750393933039        0.20103204568420       -2.35884260336999
C           -5.65804638126035       -0.18242808648997       -2.70917722135985
C           -6.48321530909535       -0.86562068024662       -1.81777331953580
C           -6.05042505408456       -1.16913623023082       -0.54235563532484
C           -4.76683369851715       -0.79303768647889       -0.16711889963845
C           -4.02064233878701       -0.91327504510070        1.05387905020557
C           -4.29891999937229       -1.48068146679582        2.29092188437406
C           -3.33232168210315       -1.42950930449913        3.27566156961482
C           -2.09886827778987       -0.82805219354729        3.03513010625511
C           -1.79753148911201       -0.26026760150649        1.81154458445217
C           -2.76827872773543       -0.29844763825063        0.82120470440791
C           -0.97512494251138        1.85060772675579       -0.47565964143103
C            1.92435248329780        1.00567407414212        0.68597651837033
C            2.02475839719367       -0.24908828060557        1.27254360062066
N            2.41734837699580       -1.34916156407780        0.49207531374597
C            3.54720290245214       -1.41485095640599       -0.29718552696004
C            4.56404835414999       -0.48479800759519       -0.46366021253220
C            5.61189913347975       -0.81697674237375       -1.30100613279459
C            5.65964245215222       -2.04727534863986       -1.95428256548945
C            4.66034391936514       -2.98377778004690       -1.77828016575015
C            3.59490909378751       -2.67269977293078       -0.94269819741853
C            2.42150991499209       -3.38880311861102       -0.52614657819802
C            1.90590843557650       -4.64243657266279       -0.83094537531256
C            0.70640129407012       -5.02179367912088       -0.26158227367105
C            0.01639391271941       -4.16457027126420        0.59389321352616
C            0.51080234845412       -2.91530027714902        0.91622698588809
C            1.72432165473347       -2.53536402078491        0.36067902669079
C            1.73696772445333       -0.40847483033235        2.62511010352635
H            1.13132471993963        0.57093052379128        4.42367540208541
H            0.92264348433330        2.78581422491745        3.37537946712954
H            2.52816256781913        4.39913793344218        2.35418277543533
H            2.46934985006281        6.62173640350000        1.30013031222730
H            1.36034952439911        6.91580459245338       -0.89077806708168
H            0.27773441274143        4.98853366480624       -1.98239857211182
H            1.29993118467702        2.57416451652889       -2.86732013566333
H            0.17634322291860        0.66517988050424       -3.95344749358734
H           -1.67156867452424       -0.49784106799972       -2.80877384517822
H           -3.75515037719264        0.74686040972946       -3.05175690240041
H           -6.02976030386752        0.05733010351540       -3.69494137939446
H           -7.47742343083238       -1.15020185585016       -2.13003783932919
H           -6.69569513671603       -1.68274132038771        0.15487720057851
H           -5.25261413724209       -1.95328205205105        2.47360523475657
H           -3.52902702578044       -1.86366287076928        4.24511401547150
H           -1.35758821303793       -0.80813619726502        3.82052851041801
H           -0.83410811146944        0.19070737994177        1.63338553235436
H           -1.31340760239277        2.19903323107608        0.48887743177750
H            2.15835513619372        1.11702116230191       -0.36140519452474
H            4.54348202162457        0.46492052173812        0.04977885035658
H            6.41467336781436       -0.10908652906678       -1.44898790627887
H            6.49583499067619       -2.26972877836417       -2.60106446785702
H            4.70477845507203       -3.94206876736338       -2.27432418464395
H            2.43329968168367       -5.30195577647864       -1.50427487114748
H            0.28919823562494       -5.99279963256347       -0.48570627241626
H           -0.92801611771240       -4.48041346876774        1.01332072486316
H           -0.03971624087964       -2.25572455587025        1.56895995102124
H            1.82571674943355       -1.38352290597434        3.08007372158271
