  68
       -116.74456198
 C          1.3282974033        4.6151507289        1.1400631029
 C          0.6848199928        3.6005999811        0.4374348259
 C          1.3044772135        2.3944130180        0.1803156839
 C          2.5937136356        2.1838089244        0.6628426163
 C          3.2415730565        3.2440716515        1.3345173224
 C          2.6264015603        4.4558767148        1.5884577526
 O          4.5174742222        2.9218450556        1.6648398260
 C          4.7243131514        1.6586745574        1.2132847546
 C          5.9484063956        1.0085896601        1.2971934441
 C          6.0496529998       -0.2509510106        0.7422565087
 C          4.9263279296       -0.8415489584        0.1784179828
 C          4.7619377521       -2.1245663957       -0.4457751099
 C          5.6378791748       -3.1609935401       -0.7325145717
 C          5.1421993848       -4.2914557732       -1.3556339429
 C          3.7948299660       -4.3916775590       -1.6899030873
 C          2.9045212180       -3.3714234944       -1.4057843131
 C          3.3992149217       -2.2328986754       -0.7906366802
 N          2.7321241466       -1.0727574244       -0.4032966475
 C          1.3552073480       -1.0037197102       -0.3495774565
 C          0.6841229019       -0.4689131687        0.7339209407
 N         -0.6367878986       -0.5032333828        0.8585892138
 C         -1.3364103944       -1.1991609505       -0.0929520064
 N         -2.7087426371       -1.3493492734        0.0742860893
 C         -3.2884139846       -2.5213253498        0.5318147504
 C         -2.7247619788       -3.7802543640        0.6588521251
 C         -3.5266269049       -4.7940449663        1.1511449108
 C         -4.8500089357       -4.5575155194        1.5128790038
 C         -5.4095244018       -3.2976056411        1.4000447142
 C         -4.6256423305       -2.2661063613        0.9041946316
 C         -4.8576869827       -0.8666853917        0.6598877770
 C         -5.9660955005       -0.0542037451        0.8774732268
 C         -5.9091755593        1.2853183683        0.5446673021
 C         -4.7506278176        1.7657828378       -0.0531801747
 O         -4.5899080563        3.0347383754       -0.5134977520
 C         -3.3816563427        3.0692426931       -1.1331736309
 C         -2.8432296789        4.1531203306       -1.8033281538
 C         -1.6314283270        3.9663105176       -2.4432157309
 C         -0.9885357222        2.7310485039       -2.4225983943
 C         -1.5196612446        1.6547756374       -1.7398970180
 C         -2.7232708025        1.8219832277       -1.0630592786
 C         -3.6127147427        0.9724229380       -0.3183043248
 C         -3.6548825337       -0.3521114860        0.1186066282
 C         -0.6691057862       -1.7755630416       -1.1493703698
 N          0.6413529339       -1.6396706668       -1.3345647754
 C          3.6562292123       -0.2058250662        0.1521472180
 C          3.5611277269        1.1158946093        0.6165702854
 H          0.8123281555        5.5452276291        1.3229397716
 H         -0.3193325596        3.7620015648        0.0767411738
 H          0.7936345572        1.6399978270       -0.3913210627
 H          3.1526793643        5.2390360382        2.1098669935
 H          6.7869110560        1.4999541165        1.7620582742
 H          6.9895834119       -0.7794109685        0.7474294810
 H          6.6833047432       -3.0821480361       -0.4762808158
 H          5.8068321547       -5.1107825220       -1.5858653661
 H          3.4346064405       -5.2861713255       -2.1755129335
 H          1.8602512227       -3.4494081884       -1.6627236318
 H          1.2355630066       -0.0692949094        1.5710535019
 H         -1.6963732319       -3.9607089182        0.3838705886
 H         -3.1180903975       -5.7877895781        1.2575109418
 H         -5.4463353452       -5.3743344430        1.8913255702
 H         -6.4333182498       -3.1182871659        1.6907990831
 H         -6.8631262941       -0.4712278113        1.3073657101
 H         -6.7429682003        1.9472539027        0.7111957388
 H         -3.3650135419        5.0960945015       -1.8334587329
 H         -1.1822116629        4.7881887183       -2.9795440869
 H         -0.0547067929        2.6149758290       -2.9516345687
 H         -1.0213231026        0.6993470616       -1.7499781825
 H         -1.2163170236       -2.2960258200       -1.9216499271
