  54
        -85.15372491
 C         -2.4506214484        2.7301629570       -1.3535450988
 C          0.4207773882        0.3440886583       -0.0529082030
 C         -0.6266193074        2.8324351380        0.6476372674
 C          1.6682161241       -0.1040385501       -0.7084617289
 C          2.5912581966        1.6255740089        0.1553021620
 N          4.0316923367        1.3035677844        0.2215684058
 C          4.3347960956       -0.7064206098       -0.5855144811
 C          3.3365931123       -1.8054964779       -0.7747916379
 C          2.0293797139       -1.5121560540       -0.8128453599
 N          0.9719706809       -2.3959066188       -0.8007411409
 C         -0.3339757474       -2.0565643941       -0.4898020564
 C         -1.3255695496       -2.9276519364       -0.7211177908
 C         -3.1523948620       -2.2236739351        0.9057382234
 N         -3.3900959008       -0.9027908175        1.4703484370
 C         -2.4055763363        0.1346726389        1.0503267016
 C         -0.6200469847       -0.7249274465        0.1388183714
 O         -1.7588955947        3.0747393902        1.3834731680
 S         -0.8471901271        1.6522355381       -0.7999470211
 O         -3.6048155260        2.6564556226       -0.5343993682
 C          1.6897357594        0.5121619576        0.7224546098
 C          2.1852812821       -0.2313582896        1.8783592004
 C          3.4897041135       -0.4971735440        1.9098184098
 C          4.3862774977       -0.0113427866        0.8276813397
 C          3.9886113614        0.6938507322       -1.1320773979
 C          2.5036133508        1.0244307601       -1.2621116085
 C         -1.8466909753        0.1131673292       -0.3836776527
 C         -1.2308711249       -0.6957671503        1.5594775982
 C         -2.2611232575       -1.7417955577        1.9719138525
 C         -2.7860798519       -2.6211408932       -0.5169345459
 C         -3.1834556894       -1.5802547607       -1.5308344368
 C         -2.7331505137       -0.3354127130       -1.4734635070
 H         -2.6740592137        2.4253190927       -2.3788615395
 H         -3.8003380551        1.7174357775       -0.4314833580
 H         -2.1338411185        3.7719362249       -1.3755802741
 H         -2.5071856332        3.1794737269        0.7609814837
 H          0.1265969205        2.3978341904        1.3005794737
 H         -0.2421643316        3.7401080586        0.1651920043
 H          2.3841301985        2.6609948859        0.4225783184
 H          5.3253280416       -1.0435258870       -0.8934998234
 H          3.7003482636       -2.8196095409       -0.8252506675
 H          1.1553015142       -3.3661006442       -1.0087185109
 H         -1.0946424477       -3.8851900018       -1.1649642832
 H         -3.9295635347       -2.8699656518        1.3100275369
 H         -2.6864909233        1.0823588153        1.4952514790
 H          1.5185771152       -0.5508853462        2.6652099618
 H          3.9445523739       -1.0195497509        2.7374194549
 H          5.4145455031        0.0534174143        1.1952289835
 H          4.6583505254        1.1139151585       -1.8803356235
 H          2.1489171660        1.5428090549       -2.1479058282
 H         -0.5909257968       -0.3504766770        2.3622969851
 H         -2.2723884413       -2.1775561671        2.9605455298
 H         -3.3473530417       -3.5347357276       -0.7273355811
 H         -3.8164903712       -1.8949565321       -2.3465915308
 H         -2.9864062162        0.3739073304       -2.2443472480
