103
 energy: -158.095923754111 gnorm: 0.000123769590 xtb: 6.7.1 (edcfbbe)
C            0.79884209627802        8.01678233287383        4.04759212228383
C            0.11715662347859        7.87782482337028        5.24756527262827
N           -0.53671835734194        6.77687372122303        5.58298616243452
C           -0.54192980465302        5.76888391891565        4.73078355680013
C            0.10025744109893        5.79119083973836        3.49098549826555
C            0.05535273679060        4.63420275913547        2.58866620285482
C            1.19611746540238        4.22580890895967        1.89970139297564
C            1.15276562915329        3.12986463952726        1.06080830471638
C           -0.02442671531867        2.40967082036633        0.87049377501008
Si          -0.05965061544289        0.91959366411102       -0.30169993359121
C           -0.17777736132212        1.50312020217262       -2.10195778652047
C            0.16179739531246        2.80098944994191       -2.47281577886098
C            0.08714878252907        3.21452835731092       -3.78877199862500
C           -0.32767988447614        2.33303889558439       -4.78524163293673
C           -0.41016532581950        2.76727835684619       -6.18493049990170
C           -0.00735889847654        1.94363172086297       -7.23593226966613
C           -0.10654901551699        2.40594717784047       -8.53658470070259
C           -0.60629211026369        3.68254457203855       -8.74749916368379
N           -1.00007705205854        4.47503409864044       -7.76303303741603
C           -0.90450175421643        4.02844424021050       -6.52465523442094
C           -0.66939844612207        1.03127796584540       -4.42222758875354
C           -0.59776844037265        0.62983961758586       -3.10292643998092
C           -1.56832332137419       -0.16183642128330        0.08185525405208
C           -2.82713888198107        0.19484614876219       -0.39644399980818
C           -3.94646097166387       -0.56269714341520       -0.11345086614891
C           -3.83108560098328       -1.70419463138571        0.67559102748942
N           -4.96463513540112       -2.47649647357304        0.97116903658026
C           -6.15909263293495       -1.99862948512159        1.47289018146674
C           -6.50638890029400       -0.70939848298068        1.85278819563268
C           -7.77623630801779       -0.50461418548559        2.35785805908663
C           -8.68392498211044       -1.55352738468429        2.49265764547309
C           -8.33662599432171       -2.84215989325303        2.13864054647996
C           -7.06531500754170       -3.07326636497497        1.62853948349672
C           -6.37557082022979       -4.25463954518146        1.19057385750936
C           -6.73883435571007       -5.59182074644808        1.09106558137546
C           -5.81750945570118       -6.49315668551313        0.59581018193942
C           -4.55218787164970       -6.07326014947106        0.18979307166290
C           -4.16782020780775       -4.74885405025693        0.27847902640870
C           -5.08125337751974       -3.84143807970052        0.79729063533208
C           -2.58078421150499       -2.07304286655263        1.16353510707459
C           -1.46900507715489       -1.31026367769193        0.86147791869575
C            1.54192630661970       -0.06310585084300       -0.04752986858111
C            2.03367649963323       -0.28642836931301        1.23664052786601
C            3.19660533601081       -1.00057374825943        1.44864002393523
C            3.90885777756982       -1.50475447581309        0.36379851461426
N            5.09609806629245       -2.22414162374867        0.56886668697026
C            5.39143914356742       -3.46383579252193        0.03775019376073
C            4.60958499488809       -4.29702676074567       -0.75047672729165
C            5.14315983227690       -5.51379300524832       -1.13034972922873
C            6.42070304805623       -5.90446917673718       -0.73326606323755
C            7.19419853647097       -5.09013003997566        0.06998661499036
C            6.68004259220208       -3.86128363459613        0.46440964013943
C            7.18293984963736       -2.79703235644127        1.28770680568911
C            8.37957118600055       -2.59483147650343        1.96375992368181
C            8.55583276234473       -1.41524381888801        2.65957744305359
C            7.56199341030652       -0.43835391020898        2.67668661151661
C            6.36334090761136       -0.61637524999743        2.01258029005910
C            6.17168059242602       -1.80892347544339        1.32848688177438
C            3.43489794793850       -1.28475851565404       -0.92629926705723
C            2.26408659550275       -0.57728973109166       -1.12034281028886
C           -1.15954096811151        2.82587445794199        1.56002043499748
C           -1.12487269811354        3.91577438139532        2.40821729307869
C            0.78876018763585        6.95723128162177        3.15742845873830
H            1.31914683380424        8.93330410061198        3.81515839414405
H            0.08825110619928        8.67782417345113        5.97603623271714
H           -1.07511018396455        4.88587224712947        5.06065395376861
H            2.12567139068126        4.75851416118119        2.04312447969846
H            2.05109194297268        2.81990147771362        0.54557608328404
H            0.48718403658927        3.49936824956969       -1.71559186730401
H            0.37060381425413        4.22304583125697       -4.05447717605915
H            0.39618116609584        0.96209518553559       -7.03173909031975
H            0.20205935779552        1.79276436447634       -9.36936113991903
H           -0.69874495603326        4.09522194303246       -9.74380396711953
H           -1.25816817213675        4.70764332366567       -5.75898704603004
H           -1.01437544579362        0.33936135215828       -5.17754139353442
H           -0.87805810895665       -0.38036321017029       -2.83982292296847
H           -2.92876471237559        1.07677316054722       -1.01246910679344
H           -4.91212154724001       -0.28422839637816       -0.50978325532550
H           -5.80560613698864        0.10742218537098        1.76823760962826
H           -8.07122201171405        0.49052430356744        2.65802942195056
H           -9.66838136773336       -1.35265868614377        2.88940631815781
H           -9.03476461365824       -3.65735603029428        2.25788959123294
H           -7.72454613286450       -5.91476575004438        1.39149738727055
H           -6.07946595699868       -7.53784729382718        0.51248403170611
H           -3.85735988188212       -6.79922653051143       -0.20713630360969
H           -3.19056909413865       -4.43233622933674       -0.05361090159415
H           -2.49081225287484       -2.94960750140487        1.78839898092362
H           -0.50396304747989       -1.61055993161324        1.24211341349558
H            1.49342757994563        0.10661132381240        2.08598283319704
H            3.55466555812172       -1.18181535216788        2.45164903300444
H            3.61281049065638       -4.01057414999780       -1.05040246355072
H            4.55572484685071       -6.17880986930459       -1.74684533360971
H            6.80341172231288       -6.86270449033047       -1.05323397726010
H            8.17822776899687       -5.39954073715753        0.38961865003234
H            9.15589923132880       -3.34511112341463        1.93833780069356
H            9.47880823127200       -1.23911125211453        3.19257351280558
H            7.73426503585338        0.48046876994518        3.21842993001241
H            5.60636863478547        0.15342371189775        2.01933947843664
H            3.99707109878686       -1.65796951622941       -1.76995656758720
H            1.91024471929516       -0.40753734676344       -2.12656655439498
H           -2.08484585991923        2.28316474157721        1.43197880655715
H           -2.02226867462021        4.22869925757958        2.92286784869695
H            1.29209940927115        7.03566945932444        2.20422722970581
