103
 energy: -157.992469338569 gnorm: 0.000178076637 xtb: 6.7.1 (edcfbbe)
C           -0.27108479717902        5.56796440650597        7.01416155361451
C            0.91854300581942        6.30538275294400        7.11788202052878
N            1.82380464577377        6.24542079299230        6.14539346775830
C            1.67621763870343        5.46856098447901        5.11922038142109
C            0.55568231622201        4.59579140408448        4.93493140269603
C            0.42056425893091        3.78238156956083        3.78643611911688
C            1.53739772395439        3.42666367237327        2.96997687972993
C            1.40934211440414        2.58388614250453        1.90709190983941
C            0.16095947879944        2.04131758962496        1.52475173021944
Si           0.02167036298562        0.96981667089059       -0.00317682208386
C           -0.02499880006762        1.98140517240662       -1.60804922287990
C            0.60516926341481        3.22176027803096       -1.69324127560261
C            0.56228884756856        3.97228229133570       -2.84972192171151
C           -0.11838251791784        3.50631792560017       -3.97707815229603
C           -0.16430376114084        4.29476056386919       -5.20884515571787
C           -0.10954884433132        3.69890674231077       -6.47310872942292
C           -0.15663934831372        4.49283796090668       -7.60372975250675
C           -0.25390141883983        5.86803739760845       -7.44494326813282
N           -0.31296535370263        6.44874490678342       -6.25503752919363
C           -0.27083598334160        5.68926482424950       -5.17910216552586
C           -0.75751281409265        2.26741983941739       -3.89615294627051
C           -0.71315981321038        1.52747245234340       -2.73277791276296
C           -1.56333288050948       -0.06977967030274        0.07595464869818
C           -1.54082098388319       -1.42941999228015        0.36969925437643
C           -2.70504606768486       -2.16972698628158        0.44069559188931
C           -3.93460755065193       -1.55245194317125        0.22644412494269
N           -5.12273016792213       -2.29463126259029        0.30686128751010
C           -6.12238509746902       -2.32563461881903       -0.64357564211224
C           -6.18349079061549       -1.70324051619023       -1.88367924974945
C           -7.30349136409488       -1.92611203416406       -2.66280318767719
C           -8.33722010681841       -2.75390520015100       -2.23034949872068
C           -8.27171570962223       -3.39455844241638       -1.00659800646453
C           -7.15739664343635       -3.18611832064393       -0.20644775513981
C           -6.75307409458470       -3.68905111864167        1.07895460355508
C           -7.34187779999576       -4.54482054868135        1.99900153118842
C           -6.67243994917604       -4.80917160066387        3.17983108010716
C           -5.43999843730499       -4.21983109578916        3.45337114001479
C           -4.83387398256012       -3.36380551134783        2.55289337352287
C           -5.48963662181170       -3.11440730579140        1.35427382034405
C           -3.97579742523840       -0.19194492861129       -0.06798440370546
C           -2.80080990554120        0.52940162000448       -0.14515290739303
C            1.52926909096579       -0.18707882624097       -0.07515342654780
C            1.99402021001459       -0.80908110831244        1.08107581650936
C            3.09318713705535       -1.64451637877346        1.05807620784103
C            3.76754954081546       -1.86935904778150       -0.13958524452714
N            4.89068472799353       -2.70975114658819       -0.17160746134908
C            5.08699757516310       -3.76131538672436       -1.04315839736641
C            4.24403796220975       -4.26387426175848       -2.02579135413402
C            4.67723060369560       -5.36014566124066       -2.74807727218958
C            5.91325680424524       -5.95269878600505       -2.49907304558750
C            6.74697716349250       -5.47086984676270       -1.50651824729985
C            6.33391551263613       -4.37104016739142       -0.76813113331022
C            6.91416548512562       -3.63637167309253        0.32388965641108
C            8.11117715889663       -3.74216457149979        1.01769052221257
C            8.37240394640632       -2.83601759096319        2.02914013766472
C            7.46393370580834       -1.82660110448574        2.34005569229901
C            6.26553988626311       -1.70045763968294        1.66252618888130
C            5.98671224393171       -2.62259571668148        0.66217597467522
C            3.32103039244505       -1.24984297336607       -1.30377056214122
C            2.21510541167855       -0.42275795943573       -1.26249945105714
C           -0.94764907297268        2.38826194864103        2.32523699055761
C           -0.83720820838072        3.22559790636924        3.39529090692989
C           -0.43807599868843        4.71280303458097        5.96181286703626
H           -1.00799945587386        5.63970116361369        7.80022848483731
H            1.15361584780873        6.91999715830653        7.97184829061592
H            2.41916679223311        5.57406673489846        4.34105462661929
H            2.51401060605755        3.81619536997465        3.21842779223926
H            2.28418238861447        2.32456904602933        1.32567253448202
H            1.13902663939581        3.60101002758422       -0.83367010459846
H            1.07930128324863        4.92041395418115       -2.89454550661176
H           -0.00997052506703        2.62653415447790       -6.56165234605689
H           -0.11099639410878        4.05825493728663       -8.59073438822358
H           -0.28701337006546        6.53671325640277       -8.29479620424887
H           -0.34436650866984        6.21724457505599       -4.23656290568055
H           -1.31105143502285        1.89612113839812       -4.74735981733421
H           -1.21966814193895        0.57319008071489       -2.69179773102462
H           -0.59246073617769       -1.91908428539711        0.53440506640070
H           -2.67016292314038       -3.22979815312715        0.64566548126132
H           -5.38087861179203       -1.07222983574098       -2.23395219747291
H           -7.37695733615832       -1.45051029677474       -3.62983308417462
H           -9.19739979763571       -2.90119182402525       -2.86657541989932
H           -9.06714456424031       -4.04715731166885       -0.67972039625845
H           -8.30449966773362       -4.98958052729309        1.79648872453280
H           -7.11271293323905       -5.47474079155943        3.90753311794652
H           -4.94889551075378       -4.43303794211115        4.39146915107287
H           -3.88740579196555       -2.89746627959831        2.78049019060923
H           -4.92941941988354        0.29320031986380       -0.21775919719762
H           -2.84243334003450        1.58306250547583       -0.38070307078039
H            1.48004181719560       -0.63519632620925        2.01545342759927
H            3.42767348916335       -2.13784532553869        1.95906692580167
H            3.27793113150783       -3.82120140704675       -2.21430163269063
H            4.04180002475036       -5.76840654980526       -3.52019971939356
H            6.21743578290973       -6.80665615235282       -3.08607985547522
H            7.69766779189274       -5.94091445611834       -1.30480211599955
H            8.82343064106621       -4.51392195234954        0.76759180598194
H            9.29731759037368       -2.90291267114243        2.58264773746961
H            7.70253153180073       -1.12396583149312        3.12493963000514
H            5.57594272786618       -0.90447028200406        1.89897943120274
H            3.85647186221591       -1.40493342757002       -2.22916722068034
H            1.88210575706995        0.06052710676385       -2.16940312197642
H           -1.91591135720810        1.97781823311547        2.07388506036398
H           -1.72119474774662        3.47631874710753        3.96237304486254
H           -1.30897637835949        4.07656608597392        5.92750810567146
