103
 energy: -157.992448231809 gnorm: 0.000064933658 xtb: 6.7.1 (edcfbbe)
C           -0.34054665363363        6.16621974730780        6.57613944106438
C            0.96770071767336        6.50193444004450        6.95811770781601
N            2.00453270446917        5.94561475804039        6.33754720839619
C            1.85058330264440        5.14226282876591        5.33293783256427
C            0.57593606084517        4.78653934186647        4.78465353731113
C            0.44924225538052        3.88065631261631        3.70701741232190
C            1.53021745879771        3.60021966347220        2.81608414208233
C            1.37611205835590        2.77957432668764        1.73931792748267
C            0.14994562502482        2.13693143893618        1.45252528539665
Si          -0.00483800518074        1.00688192326110       -0.03003981008652
C           -0.17237457766150        1.97372314714376       -1.65574715730948
C            0.33360592574200        3.26537129054957       -1.78630010137039
C            0.19806452696310        3.97505010533215       -2.96162704692345
C           -0.45412506127785        3.41375457465620       -4.06177961773345
C           -0.59897038133152        4.15854480375548       -5.31308032337057
C           -0.50527683166636        3.53529159305048       -6.56179068335514
C           -0.65182715132738        4.28802985393462       -7.71201735103158
C           -0.88742917228628        5.64993136295507       -7.58773359081608
N           -0.98498157489369        6.25552634517776       -6.41278455105612
C           -0.84679477749410        5.53506281692303       -5.31812713847341
C           -0.96898881816302        2.12208128582455       -3.93504526987078
C           -0.83371288933609        1.42356979923168       -2.75319154778137
C           -1.53422295639283       -0.10171414589995        0.14141073417314
C           -1.43507947384275       -1.45182387126966        0.46234650735065
C           -2.55836929064621       -2.24413246979580        0.59994892702109
C           -3.82396487426942       -1.68983122360486        0.42693716038963
N           -4.97074639366741       -2.48523821290892        0.57379666451981
C           -6.00579407947136       -2.58512884812668       -0.33283029421479
C           -6.14733216783044       -1.99412355343674       -1.58164673970207
C           -7.28723882974103       -2.28517420578687       -2.30759647223464
C           -8.26203906560034       -3.14988615341234       -1.81463881384501
C           -8.11537569819275       -3.76010824409166       -0.58233494083936
C           -6.97966863825723       -3.48306490820770        0.16518496772583
C           -6.49856331437759       -3.93797218032020        1.44203162518335
C           -7.00660835080086       -4.80049517768002        2.40295797478123
C           -6.27702137041311       -5.00657924379529        3.55956402454242
C           -5.06450274183168       -4.35312319171820        3.76904393630026
C           -4.53828216201265       -3.48923720618311        2.82681428568841
C           -5.25420743647452       -3.29780720833497        1.65220201435713
C           -3.94229847825226       -0.33995045889824        0.10594868738779
C           -2.80743329625116        0.43345299886125       -0.03850645186318
C            1.54194093249391       -0.09396058462078       -0.14550753209848
C            2.11322118169927       -0.62301049676932        1.00933974738708
C            3.23865596073251       -1.42136775172710        0.95650094169664
C            3.83120163816757       -1.70233211531197       -0.27205822802178
N            4.98182289934779       -2.50320812878983       -0.33493214165994
C            5.15535256454156       -3.60572274883602       -1.14574746441068
C            4.26251336972889       -4.20586845562615       -2.02403520279806
C            4.68582854424389       -5.33286069110792       -2.70358789397385
C            5.96084483967655       -5.86086123814934       -2.51266722456537
C            6.84615176655291       -5.28087407912750       -1.62250437368458
C            6.44409975474362       -4.14844596234390       -0.92874150228449
C            7.07454799744827       -3.31670790387008        0.06116239582905
C            8.32527168433390       -3.32610941197094        0.66205784871493
C            8.62459487833748       -2.33887607882193        1.58314960004891
C            7.70000558327987       -1.34460705623549        1.89544036498224
C            6.44808691545642       -1.31408841289530        1.30994047404506
C            6.13350841810208       -2.31611878856960        0.40125671785385
C            3.27745339337065       -1.17650894288988       -1.43618631312144
C            2.14739473596355       -0.38490138802452       -1.36401830831453
C           -0.91684795341617        2.39122993282854        2.34019036670099
C           -0.78202672355810        3.21125735884797        3.42062344209462
C           -0.53345767639957        5.34869062656087        5.49880925574445
H           -1.17435807275648        6.61030742782695        7.09913618349674
H            1.18514208611622        7.21873638010731        7.73347610952420
H            2.75196001815507        4.66880407597119        4.96975346183709
H            2.48773718021605        4.07005336416451        2.98795933124619
H            2.21860425324445        2.59756335131828        1.08528890088973
H            0.84233542771569        3.71960613799490       -0.94835363701927
H            0.61971598525831        4.96706650339775       -3.04195302698118
H           -0.29782356807327        2.47656478214326       -6.62321835468922
H           -0.57872388203133        3.83249383894288       -8.68795323943202
H           -1.00374530035487        6.28726674225774       -8.45422152317650
H           -0.95774660392854        6.07932841185758       -4.38860838335126
H           -1.49921230513915        1.67542186373874       -4.76455886070804
H           -1.24738444473858        0.42765270892152       -2.67570452487212
H           -0.45825653737622       -1.89269205251852        0.59590367876750
H           -2.46394490013183       -3.29641789356454        0.82541029329792
H           -5.38986654794497       -1.33518521697285       -1.97796435031454
H           -7.42332523933064       -1.83495255009840       -3.27996928311426
H           -9.14023048836065       -3.35048448178119       -2.41042032508996
H           -8.86486703805598       -4.44146292330949       -0.20887060401715
H           -7.95379433782792       -5.29533504861481        2.24982915547233
H           -6.65410820737190       -5.67592199568001        4.31862977053054
H           -4.52516583588627       -4.52209662147725        4.68949752074873
H           -3.60697426712552       -2.97351465169053        3.00477819763720
H           -4.92340837352249        0.09677806116887       -0.01180291140826
H           -2.90925101194492        1.47836129694710       -0.29388750801299
H            1.66198853235236       -0.40553797854711        1.96676867935431
H            3.65675716499145       -1.84278652991830        1.85913451159592
H            3.26749877074333       -3.81259799474838       -2.16596742362083
H            4.01174503141427       -5.81698582802358       -3.39488415629606
H            6.25567515824684       -6.74154980613168       -3.06391322899939
H            7.82843577657846       -5.70018658525530       -1.46529916255970
H            9.04902450527967       -4.08654453769107        0.41036773924463
H            9.59201341911768       -2.32971150535470        2.06310593022232
H            7.96824692198244       -0.57815470662659        2.60760537081699
H            5.74426464665708       -0.53020302884386        1.54483392626517
H            3.74948700215151       -1.37512046825757       -2.38748606426662
H            1.73136926906520        0.02646751973526       -2.27203842221868
H           -1.86675033834859        1.90733465656841        2.15854682697700
H           -1.62405616655272        3.35829470544218        4.08045109972870
H           -1.53583852958984        5.16422203483103        5.14418804525664
