  80
       -125.40164428
 C          1.2397022734        4.7385489196       -0.1707153044
 C          0.5819146947        3.5049776587        0.3717294371
 C         -0.7771501885        3.4573924478        0.4239751208
 C         -1.5290555281        2.2889971420        0.7442986902
 C         -2.9513214252        2.3464227934        0.6789751273
 C         -3.6366046493        3.5506871842        1.0089036105
 C         -5.0032846615        3.6422625977        0.9351761498
 C         -5.7700970724        2.5632321920        0.5070926439
 C         -5.1165203104        1.3749985507        0.1476431600
 N         -5.8798481202        0.2909318035       -0.3242051992
 C         -6.8036054579        0.3510544642       -1.3484746840
 C         -7.1542353672        1.4232071335       -2.1570817364
 C         -8.1060944147        1.2061819119       -3.1349319518
 C         -8.6910543203       -0.0451924632       -3.3166623010
 C         -8.3293687179       -1.1217943530       -2.5298442739
 C         -7.3763550177       -0.9272932454       -1.5401006980
 C         -6.7607026594       -1.7947742529       -0.5736810169
 C         -6.9153673442       -3.1337434477       -0.2646023518
 C         -6.1532043087       -3.6636555952        0.7748098284
 C         -6.2842341737       -5.0277107972        1.1122263683
 N         -6.3899842737       -6.1367976482        1.3865001515
 C         -5.2616495355       -2.8595172583        1.5044496229
 C         -5.1007593720       -1.5253196656        1.2041256799
 C         -5.8401415083       -0.9950315425        0.1522983879
 C         -3.7475177585        1.2625605557        0.2405802545
 C         -0.7650808156        1.1080967179        1.0759032265
 C         -1.4219612057       -0.1308069801        1.6064056788
 C          0.5941484576        1.1565761155        1.0268353345
 C          1.3454304437        2.3313014084        0.7285284334
 C          2.7632616336        2.2990603179        0.8510993158
 C          3.5281645794        3.4122654448        1.2978683843
 C          4.8939400826        3.3420536603        1.4110733361
 C          5.5818614979        2.1742796753        1.0954855535
 C          4.8488087415        1.0573639396        0.6641448856
 N          5.5261454958       -0.1347531347        0.3553392398
 C          5.2141084004       -1.3869333259        0.8480636427
 C          4.2317840565       -1.7593538617        1.7548282629
 C          4.1501046683       -3.0939988575        2.1035603782
 C          5.0248743913       -4.0396819890        1.5731161190
 C          6.0205122744       -3.6714272778        0.6888342639
 C          6.1215788968       -2.3361594202        0.3245564092
 C          7.0204603658       -1.6085816181       -0.5293353106
 C          8.0964975470       -1.9820051037       -1.3131350248
 C          8.7521822589       -0.9947085849       -2.0465895414
 C          9.8580903446       -1.3423008894       -2.8517139129
 N         10.7579883311       -1.6255349917       -3.5046255951
 C          8.3256944162        0.3432446669       -2.0077695621
 C          7.2537238095        0.7250905078       -1.2318611670
 C          6.6112961134       -0.2508415303       -0.4766190712
 C          3.4786552660        1.1128178816        0.5547726483
 H          2.1892899116        4.5039236016       -0.6445806607
 H          0.5901117381        5.2120021319       -0.9049338125
 H          1.4173155805        5.4676695875        0.6211120096
 H         -1.3290859718        4.3286376634        0.1015079022
 H         -3.0685995878        4.3894618781        1.3796834932
 H         -5.4964581567        4.5606493382        1.2186854830
 H         -6.8458641606        2.6230775190        0.4660193117
 H         -6.6920982418        2.3906231447       -2.0327341409
 H         -8.3999039612        2.0238945171       -3.7759072952
 H         -9.4318356368       -0.1734231097       -4.0912734971
 H         -8.7729770574       -2.0941146782       -2.6803966568
 H         -7.6094965454       -3.7577649276       -0.8069957695
 H         -4.7013101759       -3.3042762458        2.3133050273
 H         -4.4294310076       -0.9070573727        1.7785752682
 H         -3.2761992706        0.3595896684       -0.1105087720
 H         -1.6882691923       -0.8162154359        0.8006629199
 H         -2.3219458990        0.1195527057        2.1630783896
 H         -0.7394207803       -0.6601107525        2.2688333140
 H          1.1436262938        0.2799798655        1.3385464173
 H          3.0178585328        4.3041466078        1.6195318931
 H          5.4465944956        4.1977069169        1.7708143028
 H          6.6505289088        2.1056917077        1.2209458293
 H          3.5633240975       -1.0290411605        2.1845415486
 H          3.3933318249       -3.4108872735        2.8055461075
 H          4.9254908923       -5.0734697205        1.8673343484
 H          6.7085961035       -4.4016111101        0.2913389463
 H          8.4244661641       -3.0092285010       -1.3632204095
 H          8.8510696622        1.0745671063       -2.6036964205
 H          6.9175993184        1.7504409113       -1.2192878227
 H          2.9503061065        0.2553790340        0.1670586381
