  98
       -153.08270465
 C         -3.6156873012        6.6366864642       -0.5661730325
 O         -3.1514007137        5.5601973687       -1.3447418720
 C         -3.4758506531        4.2895596234       -0.9590024695
 C         -2.9927920522        3.2652669740       -1.7751456839
 C         -3.2358338984        1.9473843684       -1.4663361913
 C         -3.9577021439        1.6044704294       -0.3198221521
 N         -4.1316842376        0.2574092299        0.0238695075
 C         -5.3152971068       -0.1791159259        0.6193464835
 C         -5.3040740021       -1.1700931616        1.5968658827
 C         -6.4776953906       -1.6115714008        2.1809971335
 C         -7.6963313974       -1.0578574835        1.8075557784
 O         -8.9122266653       -1.4106002288        2.3216449541
 C         -8.9550307195       -2.4098527847        3.3107789654
 C         -7.7117631889       -0.0592784175        0.8322570114
 C         -6.5441678398        0.3691361681        0.2434631968
 C         -3.0450435136       -0.6114484944       -0.1485288047
 C         -3.2422778392       -1.9419514363       -0.5484781818
 C         -2.1824807426       -2.7942958022       -0.7897368466
 C         -0.8930301567       -2.2954915137       -0.6613063943
 C         -0.6867654374       -0.9669980998       -0.2279117891
 C         -1.7552223013       -0.1337606050        0.0464634186
 C          0.7292547572       -0.7535119560       -0.2188699607
 C          1.4996128820        0.3618925532        0.0559924807
 C          2.8710979914        0.2989859794       -0.1572428400
 N          3.6567334855        1.4415607386        0.0350090297
 C          3.0872972966        2.7017260077       -0.1974759126
 C          2.2231297485        2.9012962641       -1.2710502310
 C          1.5903521319        4.1147965902       -1.4663594356
 C          1.8300528832        5.1749546727       -0.5991793375
 O          1.2494569416        6.4063484582       -0.6857008687
 C          0.2930861135        6.6283109065       -1.6962758092
 C          2.7295975031        4.9926483615        0.4526461864
 C          3.3415131077        3.7758708910        0.6567283773
 C          4.9510372032        1.3425374881        0.5497757007
 C          5.9469653640        2.2316530312        0.1381754516
 C          7.2213992122        2.1413996734        0.6489808446
 C          7.5502866081        1.1542633369        1.5797119385
 O          8.8446154605        1.1525332040        2.0172492080
 C          9.2276917274        0.1896604675        2.9681295694
 C          6.5655050389        0.2629831617        1.9884970259
 C          5.2819437352        0.3638685705        1.4825965212
 C          3.4494478162       -0.8997226346       -0.6054509000
 C          2.6956750776       -2.0322170322       -0.8401187145
 C          1.3223934916       -1.9610770920       -0.6454051035
 N          0.3313386128       -2.8984928709       -0.8779991030
 C          0.5263022052       -4.1949490868       -1.3745678699
 C         -0.0979126718       -4.5781453880       -2.5384659344
 C          0.0981874791       -5.8592997076       -3.0668892622
 C          0.9288956089       -6.7452813251       -2.4399941994
 C          1.5741257722       -6.3961816234       -1.2354337196
 C          2.4187408284       -7.3025283965       -0.5600190094
 C          3.0037826385       -6.9654584048        0.6276467319
 C          2.7565076077       -5.7100419818        1.2025674010
 C          1.9539333911       -4.8029682847        0.5687211029
 C          1.3600197317       -5.1094428008       -0.6737028385
 C         -4.4583570991        2.6289213043        0.4768944642
 C         -4.2272602315        3.9569116124        0.1613371474
 H         -3.2549804136        7.5354998857       -1.0635020651
 H         -3.2128926522        6.5995489954        0.4512729639
 H         -4.7092166656        6.6602745282       -0.5246126021
 H         -2.4277288697        3.5314112334       -2.6545502715
 H         -2.8533122471        1.1660217889       -2.1049881230
 H         -4.3632491062       -1.6000353158        1.9064207143
 H         -6.4223307739       -2.3821202103        2.9336358364
 H         -8.5675672225       -3.3635258315        2.9368500774
 H        -10.0068233936       -2.5249906220        3.5673403091
 H         -8.3949706123       -2.1158739801        4.2048563206
 H         -8.6623682165        0.3614235599        0.5450521622
 H         -6.5728887641        1.1340685717       -0.5176587317
 H         -4.2525722568       -2.2991680497       -0.6799959188
 H         -2.3601427767       -3.8157869969       -1.0906969621
 H         -1.5880062472        0.8780602305        0.3800518527
 H          1.0360292672        1.2724135834        0.4002677222
 H          2.0275327608        2.0870181078       -1.9523218921
 H          0.9121218217        4.2189366037       -2.2979706801
 H          0.7285813859        6.5128644513       -2.6940991132
 H         -0.5680756126        5.9604473794       -1.5942476927
 H         -0.0331479189        7.6588843740       -1.5666989111
 H          2.9187041513        5.8223630539        1.1152617247
 H          4.0157540938        3.6456139639        1.4895309063
 H          5.7084333659        2.9957166048       -0.5858701263
 H          7.9927003430        2.8264399952        0.3347207631
 H         10.2806418670        0.3787241604        3.1705843814
 H          9.1112358173       -0.8278947023        2.5805278648
 H          8.6570710401        0.2920788075        3.8971731086
 H          6.7781560157       -0.5110210100        2.7089508526
 H          4.5235141496       -0.3269877961        1.8192984809
 H          4.5141514911       -0.9265786992       -0.7816559169
 H          3.1654066141       -2.9391536378       -1.1894230494
 H         -0.7307615272       -3.8733232767       -3.0573320823
 H         -0.4015961206       -6.1314949861       -3.9845625301
 H          1.0982188567       -7.7287893843       -2.8531656198
 H          2.5893802846       -8.2740986078       -1.0012398504
 H          3.6494335341       -7.6654485577        1.1370775354
 H          3.2035746141       -5.4642544511        2.1544919120
 H          1.7610031949       -3.8430625694        1.0224069231
 H         -5.0261550299        2.3845701691        1.3622206181
 H         -4.6259787982        4.7199157077        0.8109645696
