68
 energy: -109.558034215686 gnorm: 0.000096847362 xtb: 6.7.1 (edcfbbe)
O            4.56957444528699        2.28945177381160       -1.11418248457161
C            5.03216641156090        1.31190192929575       -0.56201579536030
C            6.42930227689811        1.31211092077839       -0.05652956155125
C            7.03849641477597        2.54773542321365        0.17545626279858
C            8.32740836810778        2.61489714995351        0.66968444148913
C            9.03378085061174        1.45162225824514        0.93838072391881
C            8.44603705966927        0.21934015779663        0.69852825023426
C            7.15657335640695        0.15842672374764        0.21022403161699
S            6.45910480299083       -1.43998458118015       -0.19158873677615
O            6.75278391621425       -1.71643442359821       -1.57235202111041
O            6.87705706268592       -2.40817844389718        0.78509618915785
C            4.70353839362952       -1.14938433771399       -0.04110899672875
C            3.86630171448820       -2.21280282734291        0.23141037342778
C            2.49643530137501       -2.02315527581363        0.26811369327885
C            1.94922094677024       -0.76479253852422        0.01016103278378
C            0.49435240719787       -0.56036150807277        0.02549684094561
C           -0.11753348127340        0.25248433860941       -0.92707143256765
C           -1.48583396972814        0.43543887944045       -0.91432488318948
C           -2.28890790054123       -0.17371630664233        0.04635572063483
Si          -4.16852220008138        0.07755065585214        0.02792883622358
C           -4.95081936836869       -1.06859499766366       -1.26114499579066
C           -6.30819196486821       -1.37263202866056       -1.19637807866128
C           -6.90279355460707       -2.18957617993997       -2.14041946730191
C           -6.14536943479006       -2.72111024663150       -3.17103629632318
C           -4.79339228416080       -2.43245934782867       -3.24836953572564
C           -4.20484592066681       -1.61356833912680       -2.30134781987452
C           -4.88196937081998       -0.34375460495128        1.73181259514860
C           -5.18561483470281        0.64854783100517        2.65841710496239
C           -5.69137490376582        0.32920217138433        3.90585757963911
C           -5.90270714528696       -0.99531348793870        4.24971881319847
C           -5.60887777017957       -1.99622014948629        3.33853627626841
C           -5.10448463600989       -1.67021352756029        2.09291677106074
C           -4.52076402847231        1.88840393871881       -0.40103397057005
C           -5.58177662465163        2.24533522736220       -1.22705838503303
C           -5.84425761110420        3.57203545647497       -1.51812729993444
C           -5.04596853380785        4.56964308456447       -0.98446148557217
C           -3.98355815859726        4.23240577308866       -0.16231835794058
C           -3.72604931837956        2.90430052716115        0.12404799586782
C           -1.66931452521157       -0.97606267708005        0.99880053268406
C           -0.30225427225674       -1.17301831686321        0.99046505406964
C            2.80835004244436        0.29400768600125       -0.26689535427779
C            4.19105349149323        0.11898344672845       -0.28937806862643
H            6.47531686831761        3.44349847803977       -0.04025927391332
H            8.78520746942237        3.57673293737233        0.84510644770590
H           10.03964732174830        1.50373665011801        1.32617212021105
H            8.96695188907678       -0.70619798963276        0.88735669381193
H            4.30863917587612       -3.17978610681608        0.41326015402106
H            1.84319037842844       -2.85826625382724        0.47100483125549
H            0.48283019187750        0.72160775418772       -1.69278619886487
H           -1.94467030236870        1.06783925682504       -1.66114329740524
H           -6.90230378951808       -0.96563127467098       -0.38978120248993
H           -7.95784086467134       -2.41404295258018       -2.07336190932246
H           -6.60716503071530       -3.36014413084232       -3.90968368748615
H           -4.19729175556441       -2.84726246937172       -4.04865419878637
H           -3.14820943458426       -1.39515022550137       -2.36554829118418
H           -5.02763075413672        1.68452155335449        2.39389126574648
H           -5.92256178906307        1.11405401152803        4.61187326806655
H           -6.29755283430700       -1.24712982887827        5.22335312718506
H           -5.77511709764682       -3.03153748402971        3.60039969519751
H           -4.88414724231575       -2.45491486026029        1.38223245696537
H           -6.20554254393596        1.47076469849276       -1.65024626555176
H           -6.67242668908788        3.82978276934417       -2.16275367531104
H           -5.24929270394304        5.60647107643427       -1.20999315349835
H           -3.35545470723546        5.00681681133299        0.25460839806732
H           -2.89159064486693        2.64604468978239        0.76159113869565
H           -2.27017227665179       -1.44913295606712        1.76210820685802
H            0.15787222632590       -1.78534398199314        1.75268441569105
H            2.41791330488742        1.28382344189928       -0.45247972893077
