68
 energy: -109.481539651649 gnorm: 0.000119435625 xtb: 6.7.1 (edcfbbe)
O            4.41909791566059        2.48103791312214       -0.53825566001595
C            4.97497641393513        1.38364236781024       -0.26880551583599
C            6.39716450637725        1.32577461634729        0.01082648527956
C            7.07804724007644        2.55874892589983        0.13919149396966
C            8.40394714100001        2.59174386823634        0.48948478299009
C            9.11545233047941        1.41629039611429        0.72293300576688
C            8.47607792638644        0.19746742364233        0.57083124695625
C            7.14452171782601        0.16887909779564        0.21170963561157
S            6.43665126357127       -1.42969187027291       -0.15482743953496
O            6.67953555929084       -1.71766418072413       -1.54392297061383
O            6.88235447174432       -2.40440617359110        0.80303640261214
C            4.69515491114899       -1.11206469636567        0.05844840098253
C            3.87542890257601       -2.19733560636445        0.29409722075116
C            2.50360334855713       -2.03225909024296        0.30482190802326
C            1.95196344735252       -0.76564374916452        0.05923087739687
C            0.49494964661982       -0.56701550180947        0.05703957143229
C           -0.10846451660360        0.24758056160907       -0.89987538290736
C           -1.47748219155375        0.42376701372338       -0.90435427425849
C           -2.28858306924377       -0.19143636304162        0.04618036617357
Si          -4.16491535187097        0.07051970367359        0.02077280953606
C           -4.95196703497562       -1.07327182225331       -1.27249658772791
C           -6.30915445062162       -1.37375276916619       -1.20538652985990
C           -6.90559966836551       -2.18408184875631       -2.15439122904114
C           -6.14940493744879       -2.71050971646783       -3.18842073437887
C           -4.79712511764583       -2.42382406650777       -3.26591473212610
C           -4.20534873741579       -1.61172260524293       -2.31464841854808
C           -4.89871882287066       -0.35322318545663        1.71657708744274
C           -5.20318304440845        0.64108145455771        2.64048751426761
C           -5.71711046762706        0.32249756175750        3.88487841794888
C           -5.93616672896639       -1.00138369063526        4.22616487679941
C           -5.64139915213734       -2.00335205105303        3.31646514905521
C           -5.12872373560641       -1.67916228409343        2.07362440273186
C           -4.51324596321520        1.88114476979766       -0.41305317499547
C           -5.57910081801676        2.23984553864803       -1.23220962772865
C           -5.83753496780782        3.56721068445140       -1.52386554167995
C           -5.03044266494536        4.56214129666040       -0.99831883408586
C           -3.96347971848012        4.22229954290746       -0.18306787822683
C           -3.70930498031788        2.89382501613393        0.10445145940368
C           -1.67823288770390       -1.00009858783615        1.00027944804292
C           -0.31007894158508       -1.18755129417059        1.01007372696286
C            2.78572869990243        0.31242347704735       -0.16080777383855
C            4.18898583198950        0.17128293516946       -0.13508017143376
H            6.50747985894037        3.45881173723274       -0.03581224633450
H            8.89970374764898        3.54617535061262        0.59016763930945
H           10.15588048294320        1.44919207065137        1.00475863384124
H            8.98945928295693       -0.73976297856612        0.71683330484886
H            4.33338585230967       -3.16191730113284        0.44659326582280
H            1.85969230466538       -2.88284583583967        0.46265447662882
H            0.50017094202382        0.72549878774805       -1.65307658317995
H           -1.92934838619740        1.05777635230211       -1.65413835864453
H           -6.90195564853396       -0.97087767250505       -0.39603272372728
H           -7.96090459037232       -2.40653048593519       -2.08740677795941
H           -6.61280096703584       -3.34473244730206       -3.93003252499763
H           -4.20206412735713       -2.83438231268518       -4.06887846616782
H           -3.14866391868797       -1.39509844793066       -2.37842582244334
H           -5.03859546250863        1.67633465903568        2.37785969242850
H           -5.94836910963193        1.10801271994533        4.58985209672954
H           -6.33834916553472       -1.25201035802744        5.19694847896852
H           -5.81303342767316       -3.03804716353047        3.57657495034870
H           -4.90730447063709       -2.46452331764951        1.36418366130758
H           -6.20936751111180        1.46743553824085       -1.64952547778027
H           -6.66905417129823        3.82704442490869       -2.16307520818456
H           -5.23027096155189        5.59918693763497       -1.22531338662754
H           -3.32873517188046        4.99434483880018        0.22749148565102
H           -2.87181194025904        2.63349941515733        0.73675541413284
H           -2.28620454095694       -1.48228653306919        1.75220582418168
H            0.14390377105527       -1.80240608879876        1.77341628958237
H            2.39329459723105        1.30626783520838       -0.31910433099147
