68
 energy: -109.481555871543 gnorm: 0.000085375603 xtb: 6.7.1 (edcfbbe)
O            4.42408585331279        2.43830103110895       -0.69811721162357
C            4.98046652259771        1.35921208623729       -0.36386696587000
C            6.40236846770061        1.31929481479617       -0.07906676093180
C            7.08219292285760        2.55821353918316       -0.02278498542382
C            8.40731382003081        2.61301222941558        0.32786315273973
C            9.11907712663990        1.45414433495972        0.63254609105105
C            8.48089981292585        0.22794299408853        0.55148750139027
C            7.15027436834732        0.17701968903880        0.19142274489003
S            6.44477395951296       -1.44088187708814       -0.08217035769069
O            6.68964703184126       -1.80912955255264       -1.45182220879098
O            6.89007999722320       -2.35741585553660        0.93167971386421
C            4.70293639883426       -1.11291873239128        0.11015195442179
C            3.88449276812237       -2.18333383583895        0.40940206647368
C            2.51249025314121       -2.01979734224180        0.40865843074660
C            1.95965947538647       -0.77104614783437        0.08643738485889
C            0.50207402797496       -0.57662595266073        0.06975986993202
C           -0.10342724718527        0.16497364480269       -0.94336377780076
C           -1.47389046114713        0.32911335491051       -0.96519398386179
C           -2.28310376328826       -0.21932899655348        0.02695418948273
Si          -4.15655823709370        0.06410589379026        0.00094933168745
C           -4.76233372980432       -0.15812986701168       -1.78113696374004
C           -5.76164150162138        0.64987946399880       -2.31385136855355
C           -6.21776948841341        0.45897174295266       -3.60589233584444
C           -5.67855343329386       -0.54721204948996       -4.38964632002116
C           -4.68000982265115       -1.35802093551931       -3.87582588589377
C           -4.22696573882557       -1.16208225958195       -2.58408164931909
C           -5.00212073020043       -1.18406382577602        1.15046042606799
C           -5.01423484944670       -0.97554895539044        2.52694131113760
C           -5.60948482673836       -1.88689029112356        3.37997323648198
C           -6.20696504662128       -3.02639277025620        2.86709227217799
C           -6.20676544817132       -3.24635281281394        1.50009955388890
C           -5.60871268472864       -2.33186788720523        0.65129841305060
C           -4.56815932982351        1.81021831233022        0.61415412963833
C           -5.85366687841471        2.11192403833743        1.05475499648257
C           -6.17806984022094        3.38559400759492        1.48504002386322
C           -5.21627140073609        4.38223700260203        1.48291858256562
C           -3.93188817549885        4.09662192861081        1.05209354481961
C           -3.61288317110837        2.82099694197814        0.62148840730827
C           -1.67100172160073       -0.95809956188456        1.03488710972042
C           -0.30188917688407       -1.13692149724797        1.06014751391737
C            2.79189663756254        0.29318123424689       -0.19700646679055
C            4.19539420653802        0.15597310282569       -0.16018292276503
H            6.51165649101580        3.44594534919334       -0.25229917026091
H            8.90229362285449        3.57210875779558        0.37249600809618
H           10.15874735965716        1.50459141956243        0.91456359282035
H            8.99441390243411       -0.69863361684558        0.75408854726693
H            4.34361732253782       -3.13642241553517        0.61968381924336
H            1.86931952492732       -2.86014665570165        0.61642844522769
H            0.50449824767833        0.59206472699325       -1.72709992425032
H           -1.92925316096101        0.89180422980460       -1.76789737706783
H           -6.18271085905375        1.43998390391389       -1.70866424634620
H           -6.99442046693086        1.09640926202704       -4.00333992080836
H           -6.03274780723274       -0.69730697336606       -5.39907189081223
H           -4.25380399347289       -2.14292568682819       -4.48398650875426
H           -3.44307913751673       -1.79375483955829       -2.18979815036480
H           -4.55467610577991       -0.08420555874974        2.93111792597939
H           -5.60909991758755       -1.70887750057677        4.44579383060930
H           -6.67343566207274       -3.73934821549472        3.53123589661976
H           -6.67420768336954       -4.13227058439026        1.09491057392324
H           -5.61507852346092       -2.50670860280340       -0.41513375695268
H           -6.60578917640572        1.33524461688328        1.06505438572594
H           -7.18125331376316        3.60190144314014        1.82340352848093
H           -5.46705730798234        5.37788864103790        1.81869761955982
H           -3.17683335846108        4.86944094382222        1.05196574912659
H           -2.60736689505906        2.60385897368056        0.29095455027076
H           -2.27932007859914       -1.40077033872412        1.81047160078940
H            0.15324417666927       -1.69953087439051        1.86211006887681
H            2.39788306344125        1.27484489684415       -0.41581005017667
