  68
       -109.47584100
 O          4.4349460708        2.4506386458       -0.6953426780
 C          4.9826408488        1.3721130775       -0.3706483190
 C          6.4035070649        1.3159426916       -0.0727602165
 C          7.0864926796        2.5510791359        0.0231798095
 C          8.4046005882        2.5936338350        0.3988046673
 C          9.1087903287        1.4253936613        0.6884787644
 C          8.4702407972        0.2027365980        0.5655852275
 C          7.1466172329        0.1658321496        0.1804362647
 S          6.4404424058       -1.4382217573       -0.1627218615
 O          6.6668951566       -1.7405813777       -1.5516215693
 O          6.8973852717       -2.4026973419        0.8003901540
 C          4.7050277624       -1.1110009152        0.0729812620
 C          3.8883069406       -2.1804634164        0.3796835512
 C          2.5169393409       -2.0135481969        0.3897415528
 C          1.9637642960       -0.7618765354        0.0715354370
 C          0.5072264984       -0.5647822443        0.0644125505
 C         -0.1014869928        0.1882234040       -0.9392693146
 C         -1.4720515421        0.3489153823       -0.9582516638
 C         -2.2794045607       -0.2126578210        0.0285711856
 Si        -4.1529587718        0.0668304404        0.0061400228
 C         -4.7603086181       -0.1609178287       -1.7753469512
 C         -5.7912876927        0.6157105278       -2.2941908654
 C         -6.2502221232        0.4187738466       -3.5843021882
 C         -5.6812128351       -0.5611799335       -4.3801248183
 C         -4.6510701728       -1.3403167511       -3.8800717252
 C         -4.1959232044       -1.1391850827       -2.5898312614
 C         -4.9976549853       -1.1805242839        1.1573952947
 C         -5.0255589620       -0.9639994649        2.5324153799
 C         -5.6235101073       -1.8745553410        3.3844098221
 C         -6.2069584830       -3.0216147728        2.8720390689
 C         -6.1901762467       -3.2499048776        1.5065285661
 C         -5.5901164646       -2.3358922394        0.6586174551
 C         -4.5694908750        1.8137470421        0.6144545768
 C         -5.8571222818        2.1150186190        1.0482948116
 C         -6.1839811650        3.3892110395        1.4758213321
 C         -5.2223183144        4.3863183182        1.4781198626
 C         -3.9358236900        4.1007785948        1.0541014734
 C         -3.6142697258        2.8248501686        0.6259619105
 C         -1.6646227588       -0.9616035642        1.0276190813
 C         -0.2951205168       -1.1368524406        1.0499864503
 C          2.7957446975        0.3013611927       -0.2144117025
 C          4.1994884048        0.1634256594       -0.1820810224
 H          6.5201618598        3.4442577392       -0.1953535909
 H          8.9011774019        3.5498480566        0.4763532450
 H         10.1435102579        1.4661580836        0.9895123640
 H          8.9796251561       -0.7293980348        0.7522770013
 H          4.3470528348       -3.1356582048        0.5806921694
 H          1.8737034466       -2.8535077061        0.5983131671
 H          0.5045382989        0.6256134977       -1.7186764895
 H         -1.9295425926        0.9193079134       -1.7542806283
 H         -6.2347225706        1.3863325800       -1.6801209755
 H         -7.0520022442        1.0313519032       -3.9707338970
 H         -6.0371103593       -0.7155538599       -5.3883013975
 H         -4.2022352919       -2.1049599967       -4.4974423712
 H         -3.3885850344       -1.7471948464       -2.2060009073
 H         -4.5761710446       -0.0674073667        2.9361823653
 H         -5.6359248818       -1.6901693927        4.4489784474
 H         -6.6754038096       -3.7340186049        3.5353379122
 H         -6.6462040591       -4.1417692983        1.1013996070
 H         -5.5818939568       -2.5186509174       -0.4069508076
 H         -6.6088787247        1.3380085390        1.0565765132
 H         -7.1888815125        3.6051308945        1.8089496394
 H         -5.4752127580        5.3821696818        1.8115055550
 H         -3.1812281106        4.8736042035        1.0560696043
 H         -2.6078466072        2.6088337504        0.2987368551
 H         -2.2712079615       -1.4147867618        1.7985285302
 H          0.1614643928       -1.7074321425        1.8453566192
 H          2.4046592571        1.2855249230       -0.4272696021
