  68
       -109.55799422
 O          4.5710028482        2.2829350016       -1.1236688559
 C          5.0330916839        1.3056791543       -0.5706624994
 C          6.4265248368        1.3081940214       -0.0560494132
 C          7.0314767868        2.5448129973        0.1819340708
 C          8.3149840615        2.6141038415        0.6897757285
 C          9.0198887092        1.4521000879        0.9674950273
 C          8.4368122978        0.2188935514        0.7208944844
 C          7.1532079230        0.1557223229        0.2176854659
 S          6.4627159506       -1.4429697694       -0.1943926152
 O          6.7646101777       -1.7132033721       -1.5747957256
 O          6.8780097461       -2.4142616790        0.7807462287
 C          4.7058591716       -1.1568491842       -0.0531944651
 C          3.8687507064       -2.2217385018        0.2140278267
 C          2.4985244004       -2.0335817725        0.2475299637
 C          1.9512575755       -0.7750938962       -0.0091637157
 C          0.4967225554       -0.5682742162        0.0084767572
 C         -0.1156025045        0.2445003578       -0.9438265472
 C         -1.4829577139        0.4338881172       -0.9253280601
 C         -2.2842620754       -0.1680825972        0.0414007690
 Si        -4.1632035218        0.0868130091        0.0279546443
 C         -4.9438269953       -1.0631830091       -1.2590329413
 C         -6.2993630541       -1.3743581668       -1.1911014339
 C         -6.8910554944       -2.1979167663       -2.1312582218
 C         -6.1325542288       -2.7289896399       -3.1613368457
 C         -4.7823693269       -2.4330930797       -3.2419803371
 C         -4.1967796158       -1.6078452792       -2.2986339104
 C         -4.8761707146       -0.3363460210        1.7315150497
 C         -5.1873184214        0.6550986628        2.6565164902
 C         -5.6963279348        0.3339575833        3.9021978614
 C         -5.9031359100       -0.9913488134        4.2457178036
 C         -5.6010478889       -1.9914954292        3.3363452750
 C         -5.0935816535       -1.6637063554        2.0925392051
 C         -4.5218273465        1.8970413843       -0.3982948704
 C         -5.6073182429        2.2520276599       -1.1929199365
 C         -5.8782308672        3.5778499106       -1.4800826747
 C         -5.0633530162        4.5768421344       -0.9748096636
 C         -3.9765634362        4.2416543730       -0.1843617391
 C         -3.7114439720        2.9143381139        0.0991536380
 C         -1.6641747716       -0.9712108947        0.9928297827
 C         -0.2981499911       -1.1751204550        0.9784043105
 C          2.8099438450        0.2845207280       -0.2839479856
 C          4.1928278293        0.1110995328       -0.3024380624
 H          6.4690693435        3.4395041622       -0.0401305827
 H          8.7690301432        3.5770557174        0.8690991032
 H         10.0207954815        1.5056341980        1.3676892190
 H          8.9565958751       -0.7061072253        0.9156691832
 H          4.3119553939       -3.1884989052        0.3952282715
 H          1.8457501046       -2.8697392049        0.4476578402
 H          0.4833469634        0.7083082473       -1.7139215974
 H         -1.9423234907        1.0653668591       -1.6726114772
 H         -6.8946066319       -0.9689140482       -0.3844938686
 H         -7.9447360597       -2.4278713842       -2.0614740673
 H         -6.5921238790       -3.3731755840       -3.8968758072
 H         -4.1850940402       -2.8467146191       -4.0419838612
 H         -3.1417303926       -1.3829783463       -2.3665656684
 H         -5.0317448690        1.6915548158        2.3923219334
 H         -5.9335764985        1.1178065242        4.6072922766
 H         -6.3012211086       -1.2446443816        5.2176659313
 H         -5.7640027461       -3.0273688121        3.5979778836
 H         -4.8681285245       -2.4472468251        1.3821599353
 H         -6.2444243000        1.4766284527       -1.5941087016
 H         -6.7260993273        3.8334831615       -2.0994453188
 H         -5.2728603023        5.6130167956       -1.1978220127
 H         -3.3351067913        5.0169271118        0.2099453951
 H         -2.8580323411        2.6582787929        0.7119712860
 H         -2.2634432331       -1.4380221701        1.7611861546
 H          0.1630154825       -1.7863443632        1.7408256941
 H          2.4190004004        1.2740342892       -0.4700592702
