68
 energy: -109.558025245205 gnorm: 0.000115130699 xtb: 6.7.1 (edcfbbe)
O            5.39623633946035        1.93849402637429       -1.19766812992476
C            5.81553091759534        0.92113247985440       -0.68396303429918
C            7.22300488830667        0.82784514563399       -0.21747059253709
C            7.91012567367743        2.02037139913185        0.02269930827221
C            9.21323996107424        2.00134805127714        0.48255440283464
C            9.85628736824901        0.79318942306069        0.70891414990855
C            9.19079722026404       -0.39703834779047        0.46016663173276
C            7.88785015778143       -0.37187774654752        0.00558247321943
S            7.09000881279768       -1.91828211677847       -0.41252191730625
O            7.34019783076479       -2.18233651957567       -1.80427470370248
O            7.47004482424560       -2.92942734829328        0.53565029721158
C            5.35749172710549       -1.53090761222976       -0.21948713502379
C            4.46603166171137       -2.55271196388694        0.04008435331075
C            3.11015512253357       -2.28737901908908        0.10853451313120
C            2.63057452582043       -0.99285444033317       -0.10152955276879
C            1.18961836511842       -0.71004486180786       -0.05501844833776
C            0.61028270174391        0.17294428104086       -0.96470883534297
C           -0.74688878977756        0.42321386427044       -0.92846863893844
C           -1.57116723474877       -0.18797056673950        0.01279714282147
Si          -3.43787006901613        0.14553038027203        0.01614337079665
C           -4.26727886592246       -0.88020358582751       -1.34331197623436
C           -5.63597754757713       -1.13193460960221       -1.29386679858578
C           -6.26437091966463       -1.86088480201682       -2.28680410927314
C           -5.53026651657773       -2.35512511396098       -3.35225083306993
C           -4.16758963153289       -2.11794080500871       -3.41513420430176
C           -3.54516665247644       -1.38705977975231       -2.41903816851886
C           -4.17174572002016       -0.35542622405916        1.68944661347282
C           -4.44998902949958        0.58837480133784        2.67292304692507
C           -4.97293283578268        0.21056300946404        3.89671680079293
C           -5.22719913995476       -1.12498772435785        4.15918402698030
C           -4.95901108113156       -2.07801685027558        3.19054489673040
C           -4.43748472132278       -1.69359732853333        1.96888054029976
C           -3.71373607700750        1.99430130539110       -0.28900765292889
C           -4.76862813457045        2.45099873429308       -1.07263037784992
C           -4.97790354001922        3.80435257045799       -1.26851081128085
C           -4.13133707201943        4.72878049436505       -0.68023546628336
C           -3.07399746972301        4.29186604390173        0.10041970043704
C           -2.86983394925731        2.93763710713949        0.29167903316582
C           -0.98327134367635       -1.05795181329832        0.92504303419909
C            0.37233711894794       -1.32055310946011        0.89406601525224
C            3.54381095653749        0.02338802397279       -0.36468087857008
C            4.91362338704460       -0.22899705623185       -0.42186598005603
H            7.39539106494396        2.95198073722019       -0.15968724224692
H            9.73163481258065        2.93076087769238        0.66404505415103
H           10.87317791864804        0.77794362517739        1.07025744016529
H            9.66083787549458       -1.35539454128423        0.61597658849947
H            4.85569045573249       -3.54806474777553        0.18575570782311
H            2.41447309216816       -3.09050225665396        0.29891720707729
H            1.22566495552610        0.64349075501434       -1.71747698955575
H           -1.18009306134391        1.10986122301319       -1.64198582581918
H           -6.21226667906679       -0.75452980849007       -0.46039281983984
H           -7.32772448539852       -2.04567856279148       -2.23087316741146
H           -6.01850196871611       -2.92528965149558       -4.12926677168447
H           -3.58953306554207       -2.50422871391897       -4.24247215784895
H           -2.48035518643906       -1.20940591660542       -2.47239411523628
H           -4.25792902293015        1.63287107230487        2.47202713172601
H           -5.18413491417808        0.95839825251200        4.64773240941401
H           -5.63574404798347       -1.42239424785731        5.11412495627147
H           -5.15875232596870       -3.12150223857136        3.38884711346955
H           -4.23715759494523       -2.44056012097021        1.21303866885384
H           -5.43014513214650        1.73400201303101       -1.53783005736883
H           -5.80231630074846        4.14011920278520       -1.88123059611171
H           -4.29325964551091        5.78623863860401       -0.83118682056909
H           -2.40845106672826        5.00893416832148        0.55964645290737
H           -2.03984129714262        2.60150352167796        0.89795141127242
H           -1.60006167346164       -1.53308562741127        1.67423029732356
H            0.80795984903222       -1.98534862749307        1.62608547827531
H            3.20783822460324        1.03905517815578       -0.51342245990116
