49
 energy: -80.812316924662 gnorm: 0.000047315970 xtb: 6.7.1 (edcfbbe)
C            5.90755268492002       -0.60338881437263       -0.36232836186183
C            4.89332392587819        0.26503734147879        0.37809589580771
C            5.03727967592919        0.05962744306946        1.88856121448405
C            5.09909732417142        1.73464323897727        0.00052579158606
N            3.53381293364898       -0.14243630751803       -0.02349597283439
C            2.41328094401582        0.46188987617500        0.45570586028493
O            2.37498365329075        1.39165730722071        1.23229734371180
C            1.20054358159487       -0.18424169159527       -0.11673434823498
C           -0.09890865221604        0.19504353490846        0.16527605938739
C           -1.14717815030070       -0.50302149644259       -0.44089635635483
N           -2.46471010787423       -0.13986542649522       -0.18706902065762
C           -2.96580469740368        1.15431772852041       -0.20145235380716
C           -2.32949812847178        2.34662680992810       -0.51120751814785
C           -3.08417494608785        3.50506248064837       -0.48846370728569
C           -4.44097963629446        3.48411134520564       -0.17690185164168
C           -5.08550365333281        2.29581155425667        0.10412953395333
C           -4.34735115645248        1.12004138937770        0.08743422588510
C           -4.69085811833472       -0.25984981229835        0.29934781685999
C           -5.87341989272421       -0.90320797703080        0.63820424567533
C           -5.85671776324624       -2.27434109379632        0.80091633786163
C           -4.67690679761099       -2.99762169891551        0.64894598854136
C           -3.48777048314069       -2.37791788420469        0.31109183959590
C           -3.50561570741129       -1.00519247324834        0.11584083248730
C           -0.86811744253809       -1.56604291168246       -1.30770448426246
C            0.43782128296275       -1.94548194057746       -1.57442743322692
C            1.45714371812268       -1.24066868328389       -0.97256495827512
S            3.21809367441093       -1.44350498754110       -1.08772486730558
O            3.64424643508769       -2.67299281290224       -0.49560367904747
O            3.69782550562534       -1.13091582650188       -2.39729436433538
H            5.80240947972973       -0.48536492696325       -1.43722580631553
H            5.76808473177759       -1.65236327343446       -0.11653459125246
H            6.91198781809632       -0.30468889210185       -0.07183190665875
H            6.04297525850222        0.32753978961937        2.20051564410403
H            4.85553112407551       -0.98302336230657        2.13989974468932
H            4.32585388170076        0.68239367837058        2.42375068411437
H            6.10833241746950        2.04017327150896        0.26247706298347
H            4.39201620665300        2.36502623534385        0.53202508419608
H            4.95718791878601        1.86690060204283       -1.06976761923509
H           -0.28545466992887        1.00042793020863        0.85837121801867
H           -1.28344451383585        2.37696593091196       -0.77446124955197
H           -2.60950887931270        4.44634411070189       -0.72131141961487
H           -4.99483422090906        4.41069034638950       -0.16660880027417
H           -6.14131551419793        2.27486531544067        0.32679038335359
H           -6.78220185519734       -0.33800815876763        0.77734347585507
H           -6.76549085252533       -2.79521885025940        1.06206658837174
H           -4.68817834815493       -4.06624037742960        0.80297475758240
H           -2.57591753127857       -2.94854073491850        0.22168705790744
H           -1.68629838591724       -2.07937037123457       -1.78879659926850
H            0.65678192824163       -2.76168847450874       -2.24386641786404
