49
 energy: -80.715949595253 gnorm: 0.000095262416 xtb: 6.7.1 (edcfbbe)
C            4.95853069652805       -1.24971171393012        2.15813862414236
C            4.85089638761522       -0.82156215580810        0.69482809322780
C            5.96641855792781        0.17582574619361        0.36772935093350
C            4.95452148773156       -2.03345360374827       -0.23971980410112
N            3.56766856901822       -0.15838087724355        0.47872671355280
C            2.35920119086265       -0.80008527351056        0.76168653337490
O            2.27833685988552       -1.85321846782976        1.42388378808662
C            1.26949044816198       -0.11184664121413        0.17122043848939
C           -0.09544910083354       -0.42945388765723        0.30225389370229
C           -1.03317749367953        0.39520101079520       -0.27428809533833
N           -2.38968443618877        0.11161136924385       -0.13018005204259
C           -3.36183019493553        1.01460506315874        0.24491648201933
C           -3.23224872353098        2.35156701859276        0.60045414106935
C           -4.38052229542166        3.03685290525400        0.95565151931014
C           -5.62264970823313        2.40914547682618        0.97504197133939
C           -5.75279826057428        1.06689927941152        0.65167480756182
C           -4.61814119623404        0.36202610324348        0.28980566501960
C           -4.37487141147863       -1.01112657613271       -0.07560874803943
C           -5.19345177738818       -2.11766430024241       -0.22210797965451
C           -4.62032196654897       -3.31604805176972       -0.61943913477112
C           -3.25713620345560       -3.40799532654206       -0.88530916351749
C           -2.41989180467554       -2.31533671924306       -0.74599330704060
C           -2.98404167130709       -1.11916586623062       -0.32043945812875
C           -0.65025581091720        1.55118019585702       -1.02860321853992
C            0.69757767265095        1.84134033817995       -1.19136520258917
C            1.63403993926996        1.02298028758376       -0.61996346734371
S            3.38973019322497        1.07020891518799       -0.69438098614169
O            3.89760616835994        0.62102665753456       -1.96114617919325
O            3.93046731265816        2.29570545547740       -0.18606209769973
H            4.14184438694498       -1.92783681214379        2.40259258646785
H            4.89371702130407       -0.38206478812620        2.81020238836936
H            5.90420005331699       -1.75791080872004        2.32616516945349
H            5.94059177632105        0.44331156945510       -0.68456372123821
H            6.92870025050936       -0.27542571626051        0.59730909659361
H            5.84483096183587        1.08294370795461        0.95352516627186
H            5.92804424533576       -2.50507252431152       -0.13607592175716
H            4.81993824040457       -1.71137582329459       -1.27007655767117
H            4.18153463826748       -2.75645393332599        0.01234433304944
H           -0.38856693969794       -1.27138816557098        0.90947151804923
H           -2.26751458455512        2.83375945486806        0.61367527491729
H           -4.30966419216714        4.07766964729305        1.23194309388396
H           -6.49631334544002        2.97560759449075        1.25934004350116
H           -6.71549527664261        0.58069422697360        0.68564338599178
H           -6.25387777618415       -2.04624278555611       -0.03564751989870
H           -5.24150887861476       -4.19107349456243       -0.73534086731549
H           -2.84388080315960       -4.35055559072071       -1.20969086214984
H           -1.36743940546318       -2.38833530159702       -0.96961495997769
H           -1.40856594676997        2.12585446931175       -1.53261006907784
H            1.01189665154752        2.68845295269982       -1.78077911773102
