49
 energy: -80.812331420643 gnorm: 0.000029536621 xtb: 6.7.1 (edcfbbe)
C            4.96466192333681       -0.92746235699294        2.19939449812562
C            4.88989482176621       -0.85733156432523        0.67161545104715
C            5.98992093221770        0.05994398997157        0.14284622764426
C            5.03136333021550       -2.24916644823816        0.04932026010170
N            3.57921208330942       -0.29987281008668        0.28832175665552
C            2.40161296196347       -0.89329400869558        0.62232569771355
O            2.26811762571704       -1.91707871965464        1.25724499487421
C            1.26086250214476       -0.10039789164566        0.08759794198484
C           -0.07209746778854       -0.41851416037147        0.27213834923047
C           -1.04383659595415        0.41576905995050       -0.28773402351609
N           -2.39269851268635        0.12160144783199       -0.12668268283823
C           -3.38575163426331        1.02205106118741        0.23051273798567
C           -3.28462619288657        2.36086096917671        0.57731222825079
C           -4.44368284567147        3.02472444732547        0.93521342682168
C           -5.67536427124276        2.37630786515788        0.96036039434079
C           -5.77666361301268        1.03527006490390        0.64717319698314
C           -4.62565087514897        0.34861562018046        0.28541710131340
C           -4.36652023715519       -1.02181485358616       -0.06346385355011
C           -5.18243215409834       -2.13645238776070       -0.20273221754844
C           -4.60764924489431       -3.33151999947649       -0.58724572751597
C           -3.24279703716825       -3.41660912614511       -0.84859959170517
C           -2.41136620756397       -2.31958190243998       -0.71677731873137
C           -2.97877052572011       -1.12428821675331       -0.30225315879278
C           -0.65630502999752        1.54792454814417       -1.01407298234475
C            0.68230662862740        1.86451665423143       -1.18233061367164
C            1.62478909648225        1.02720446475288       -0.62681819264142
S            3.39836881241297        1.12267894241297       -0.64363983483038
O            3.92389990806814        0.91445714246187       -1.95672153895042
O            3.86853777382491        2.25395244674038        0.09266520989199
H            4.19313586929305       -1.58705247792257        2.58629105664643
H            4.82836078372573        0.06468280131931        2.62395647853689
H            5.93652703633873       -1.30900429520369        2.50009946035646
H            6.95859726789811       -0.34588513805117        0.42474898019930
H            5.89182690954704        1.05818901835242        0.56020223118240
H            5.94153252591594        0.13390461300850       -0.93996709152015
H            6.00488907267125       -2.66321898505555        0.29696624253078
H            4.94087652981395       -2.18275784515039       -1.03267230366258
H            4.26020095597686       -2.91321114446226        0.42954239980284
H           -0.34205791110475       -1.28294881877016        0.85834569718202
H           -2.33335056115357        2.87076796725186        0.58755545377026
H           -4.38993015222333        4.06860420686921        1.20580359231369
H           -6.55816012670752        2.93031754696447        1.24163526192881
H           -6.72683676423720        0.52518495766916        0.68803071534141
H           -6.24333275543704       -2.06324906204452       -0.01863573328386
H           -5.22263750419247       -4.21176642403389       -0.69845027578899
H           -2.82272937801154       -4.35950365804508       -1.16486611752198
H           -1.35914872903202       -2.39725903008668       -0.94301942904782
H           -1.41608844832552        2.16731392832945       -1.46508049376808
H            0.98446340140145        2.73465860685618       -1.74254052556850
