  49
        -80.81232689
 C          4.9626408007       -0.9254491072        2.1996445527
 C          4.8897884532       -0.8573585300        0.6715134928
 C          5.9898869628        0.0600416169        0.1430036459
 C          5.0331178253       -2.2501041454        0.0513968180
 N          3.5791248541       -0.3010571660        0.2861489527
 C          2.4015070291       -0.8933266423        0.6220131527
 O          2.2679665630       -1.9158888024        1.2588234448
 C          1.2607230557       -0.1008505210        0.0867810634
 C         -0.0722200709       -0.4180752532        0.2728579725
 C         -1.0439315971        0.4157051527       -0.2877826208
 N         -2.3927720008        0.1218407506       -0.1256765907
 C         -3.3856342891        1.0221779684        0.2319951394
 C         -3.2840530966        2.3607584092        0.5794638937
 C         -4.4429075677        3.0245629970        0.9383665947
 C         -5.6746889663        2.3762648248        0.9635933791
 C         -5.7763285226        1.0354303756        0.6494893810
 C         -4.6256185650        0.3488453725        0.2866358179
 C         -4.3667065074       -1.0213545299       -0.0634791976
 C         -5.1826262771       -2.1358460007       -0.2041095136
 C         -4.6078410513       -3.3305026807       -0.5899796888
 C         -3.2429275791       -3.4154925316       -0.8510339129
 C         -2.4113583242       -2.3187604488       -0.7174842862
 C         -2.9789373978       -1.1238061003       -0.3021865997
 C         -0.6565591115        1.5465492895       -1.0161979844
 C          0.6820772507        1.8620691894       -1.1863202730
 C          1.6246060016        1.0252676087       -0.6300262535
 S          3.3982302407        1.1209896994       -0.6465707981
 O          3.9249295442        0.9127187996       -1.9591748447
 O          3.8672697504        2.2527293240        0.0898474820
 H          4.1938134879       -1.5882825179        2.5866174360
 H          4.8210073960        0.0666833842        2.6227586089
 H          5.9360234878       -1.3019192230        2.5021421911
 H          6.9584018159       -0.3454523536        0.4258852449
 H          5.8913066537        1.0585346874        0.5596426837
 H          5.9419326384        0.1332224254       -0.9399042117
 H          6.0054453647       -2.6646555277        0.3032493164
 H          4.9466775827       -2.1849264003       -1.0310855978
 H          4.2601184621       -2.9132797764        0.4295538430
 H         -0.3422018322       -1.2812844115        0.8607922798
 H         -2.3326274371        2.8705418702        0.5889216981
 H         -4.3888752397        4.0680631054        1.2101848918
 H         -6.5570944673        2.9298894609        1.2466982451
 H         -6.7265207306        0.5254315830        0.6905655466
 H         -6.2436195992       -2.0626874412       -0.0205740892
 H         -5.2229304944       -4.2104357987       -0.7026655874
 H         -2.8227709726       -4.3582968068       -1.1675634476
 H         -1.3589912852       -2.3961068001       -0.9434053666
 H         -1.4165205441        2.1660537458       -1.4667126442
 H          0.9841725167        2.7310889783       -1.7483299646
