49
 energy: -80.715949728391 gnorm: 0.000051561651 xtb: 6.7.1 (edcfbbe)
C            4.96754861805001       -1.16756002920162        2.19873880026149
C            4.85701336828055       -0.79424696715140        0.72063601975418
C            5.97040115901212        0.19169310867216        0.35427438526781
C            4.96113414853435       -2.03993754403664       -0.16835084039378
N            3.57210298852807       -0.14187100057389        0.48290750195337
C            2.36555754932976       -0.77735466248070        0.78705023946742
O            2.28851821956826       -1.81081250395414        1.47978237763318
C            1.27337704216697       -0.10854551663395        0.17895270123945
C           -0.09055888337204       -0.42627539524311        0.31948885216992
C           -1.03090867899250        0.38045559522190       -0.27775981267942
N           -2.38652277577424        0.09596362299252       -0.12709609452519
C           -3.36217557955362        1.00471926933720        0.22407142687578
C           -3.23735652787179        2.35023223750295        0.54758068428121
C           -4.38843454059994        3.04031902355801        0.88391786029241
C           -5.62872462386815        2.40947825669809        0.91570903191439
C           -5.75417858688453        1.05947274031821        0.62435830792887
C           -4.61661258807276        0.34953571747901        0.28206628287133
C           -4.36837148338532       -1.03127578875595       -0.04956158497277
C           -5.18327656184399       -2.14352327889353       -0.17119411451196
C           -4.60561967721491       -3.34937522893221       -0.53822746099859
C           -3.24154515976705       -3.44354747598971       -0.79868105497257
C           -2.40792170441951       -2.34528139178433       -0.68390514866389
C           -2.97667174796512       -1.14091154578913       -0.28872294974651
C           -0.65171098141537        1.51779389278593       -1.06184574028271
C            0.69523204315439        1.80632070102261       -1.23455920731604
C            1.63430801724083        1.00506749784679       -0.64350947987570
S            3.38974278831984        1.05250029081236       -0.72403706357764
O            3.89462951786522        0.56788951047281       -1.97887588951826
O            3.93049737791257        2.29262381830991       -0.25246305982925
H            4.15310055437064       -1.83835792521672        2.46922391202969
H            4.90127396663304       -0.27635841784662        2.81809039623303
H            5.91478818606675       -1.66661189589417        2.38438176352688
H            6.93384536593112       -0.25006531168469        0.59708659210741
H            5.84968151248093        1.11935264652918        0.90712809194014
H            5.94111297793193        0.42081528747008       -0.70696171840918
H            5.93555942364351       -2.50585653442638       -0.04865322434182
H            4.82451734092766       -1.75683515451837       -1.20984134418217
H            4.18967093447671       -2.75414993344865        0.11182761611946
H           -0.38097642573902       -1.25299458420463        0.94851897404055
H           -2.27408454872942        2.83551807592095        0.55114989051385
H           -4.32131118551229        4.08765068010024        1.13540023735432
H           -6.50470437887190        2.97995706962810        1.18442234195664
H           -6.71550614717792        0.57132106698592        0.66782597376233
H           -6.24436160356016       -2.07083169926518        0.01097067003377
H           -5.22391629906345       -4.22881792384723       -0.63448682878963
H           -2.82470245325113       -4.39240723315363       -1.09922775212320
H           -1.35472486589931       -2.42042769799722       -0.90327947642184
H           -1.41208399059298        2.07763872525260       -1.57926306858428
H            1.00679264249064        2.63817479608975       -1.84671464039195
