73
 energy: -103.187250057339 gnorm: 0.000049106410 xtb: 6.7.1 (edcfbbe)
C            2.80529943815676        4.08446175876444        1.56481898035091
C            1.73488545540908        3.07309291204472        1.28891228210839
C            0.78908561415294        3.28396917974774        0.29514466343613
C           -0.20696709150109        2.36013959571569        0.02959095073101
C           -1.22111899746945        2.67852170396112       -1.03021992084719
C           -0.26994723520606        1.15292200006213        0.75169735560320
B           -1.29766709820293        0.04658607222566        0.33143274718448
C           -0.79242647398083       -1.43064925116496        0.08006525915778
C           -1.68329239960747       -2.47747311734598        0.36391056743498
C           -1.32780340326991       -3.80676682341851        0.28445532442641
C           -0.03216398748775       -4.14318912747574       -0.11345239377799
C            0.35855974827942       -5.49641131626772       -0.20737200536407
N            0.67464177730668       -6.59772238543849       -0.28015623316254
C            0.87771177690212       -3.13382063421410       -0.41991134916726
C            0.51036334915248       -1.79759662913120       -0.31625599546407
N            1.51003073578364       -0.84432778337304       -0.58765837718105
C            2.69732392589235       -0.74945932385624        0.11198298456635
C            3.16701986442831       -1.51986531792493        1.16604061722171
C            4.39970686126614       -1.19967649865054        1.70300312160519
C            5.15351063686209       -0.13710617493084        1.20910937566440
C            4.69363481118952        0.62942901276696        0.15675602450114
C            3.45928819245983        0.32431094955648       -0.40122015811244
C            2.70705723072328        0.86981624325281       -1.49485478684547
C            2.95673903422145        1.87802582177568       -2.41606289755739
C            2.03886364106518        2.09713570473774       -3.42390125361742
C            0.89356386452484        1.31199545947725       -3.53004519319537
C            0.61901477940040        0.31080346387716       -2.61773489049287
C            1.51856809714950        0.10974093281362       -1.58297058285247
C           -2.84084251561549        0.33164396569528        0.23884210459067
C           -3.50995204811481        0.91277690728973        1.33702682520684
C           -2.77521116345166        1.24747362014869        2.60242662307814
C           -4.87278472436403        1.14899495503574        1.29000641833674
C           -5.63097318777288        0.84345285548734        0.16697570467720
C           -7.10451096006716        1.11297204214861        0.14413094399159
C           -4.98072420441733        0.27050178975786       -0.91120620870322
C           -3.61659434209798        0.00734732970822       -0.88721399275347
C           -3.01585278458642       -0.57219511408438       -2.13549869798105
C            0.64656420472327        0.97339903756574        1.80030629097124
C            0.54231785098718       -0.18044486979456        2.75647743915619
C            1.62871997812564        1.92100257059236        2.04960741388114
H            3.69549300613721        3.60353024840045        1.96435615856379
H            2.45388163076793        4.80951454356294        2.30083245015227
H            3.06912618953973        4.62576407654433        0.65889493949676
H            0.83332758618890        4.19313784050866       -0.28924099449689
H           -0.93298554518905        3.57277014137156       -1.57826279908135
H           -2.19471683768486        2.85243957716308       -0.57319840168976
H           -1.32180405754531        1.85841438569178       -1.73381565391359
H           -2.68740741322299       -2.22290721530782        0.66947472174928
H           -2.03642587888517       -4.58619497483030        0.52187677918185
H            1.87903249319031       -3.38960223711659       -0.73675047541116
H            2.59376931122567       -2.34819896952188        1.55588944945737
H            4.78756389746011       -1.78758756711718        2.52268577224188
H            6.11233154216236        0.08239387873047        1.65602681450976
H            5.28033891735245        1.44950201274553       -0.22944759829854
H            3.85920701418275        2.46735810348060       -2.35018471709200
H            2.21611076037711        2.87445587412110       -4.15293453785481
H            0.20849644321259        1.48636842303332       -4.34719240372419
H           -0.25818579270587       -0.30742015612014       -2.71922883875441
H           -3.45409932631532        1.67548137687328        3.33685343180280
H           -2.32560953717330        0.35328483428655        3.02887074501429
H           -1.97835626354522        1.96137356429442        2.40745128020313
H           -5.36326099228688        1.58709736025373        2.14899268188815
H           -7.62398260339730        0.41162790923157        0.79818055785996
H           -7.31495649213825        2.11940431626423        0.50292957506216
H           -7.50576085493553        1.00613080987006       -0.86089939268935
H           -5.54568171267684        0.01997692904858       -1.79909533996336
H           -2.76398587085984        0.22936372851412       -2.83173966999438
H           -2.11564630620159       -1.13823716175826       -1.91944108487128
H           -3.72998952398029       -1.22707722416699       -2.63181872234569
H            0.08316493641765        0.16334869931998        3.68473967952740
H           -0.06549238732120       -0.98671101068070        2.35724617787876
H            1.53114261437087       -0.56185268630567        3.00228297124844
H            2.32828772046250        1.75033631517638        2.85674940828765
