73
 energy: -103.109164377407 gnorm: 0.000152844100 xtb: 6.7.1 (edcfbbe)
C            2.91430555590742        3.93538983446425        1.32435000563136
C            1.78659556596435        2.97791758880508        1.11634245381010
C            0.79361185438504        3.22253377727023        0.16966060365306
C           -0.25302253935942        2.34421803508638       -0.02470939893300
C           -1.30922326894010        2.67317366927849       -1.03163676494849
C           -0.31522775048855        1.13190148708211        0.70490736082497
B           -1.32237247510361       -0.00228252872228        0.31189379795205
C           -0.85062216582916       -1.41140660266721       -0.00002096174466
C           -1.74219709370903       -2.52276835900008        0.09027882029843
C           -1.34299227403027       -3.82021348226026        0.03046877466058
C            0.02999207362388       -4.13704395672463       -0.17590508518492
C            0.45722647882159       -5.45453328765233       -0.26608469449470
N            0.81300245068302       -6.55566058903479       -0.32595441426976
C            0.93716450557997       -3.07425298668118       -0.32903937606403
C            0.52767645388886       -1.76250013331895       -0.27706349565006
N            1.50861377083400       -0.77984101783861       -0.46726302746477
C            2.69873494162577       -0.70278746503862        0.22404416892042
C            3.15940651790095       -1.47834945497653        1.28160812450040
C            4.39805041480876       -1.17337610297236        1.81627413640193
C            5.16523143728217       -0.12394959259189        1.31677531903133
C            4.71511070770457        0.64873043578741        0.25867136572194
C            3.47779971422357        0.36104938118022       -0.29264142615619
C            2.73009266903993        0.91272013628051       -1.39274549025530
C            2.99393127323022        1.90503593705606       -2.32234083642143
C            2.07424939618203        2.12530797411531       -3.33393669190512
C            0.92157747061194        1.35278640470875       -3.43533926399637
C            0.63686156831665        0.35998345763074       -2.51490479297836
C            1.53440612084795        0.16252321984913       -1.47649687619867
C           -2.88395265355948        0.31243050007700        0.26559578830637
C           -3.51050928105845        0.88670531232403        1.38527961335360
C           -2.74713885551274        1.17226787649506        2.64327400190715
C           -4.86876440068080        1.16188696901278        1.36393482694688
C           -5.65196157362488        0.88999962640502        0.25043428674053
C           -7.12110298718177        1.19066432257105        0.25745952217856
C           -5.03324258851896        0.32346077244032       -0.84864786361436
C           -3.67215878376607        0.03291860863628       -0.85864416596837
C           -3.11831648993987       -0.52600291376564       -2.13826617919720
C            0.62725232597965        0.94691786531423        1.74639140836987
C            0.51161116860711       -0.18094749566047        2.72600867858518
C            1.66704456543049        1.84444959306448        1.91170680366013
H            3.84569646135659        3.39471415542199        1.48120859673576
H            2.73079078083074        4.54270316486480        2.21199481537592
H            3.02310928496474        4.60216117261313        0.47273539938771
H            0.84728884577445        4.12227657250354       -0.42731788162485
H           -1.03292975606458        3.55189615662530       -1.60947431810767
H           -2.25727016253771        2.86786659187885       -0.53129479836138
H           -1.46067544536323        1.83636098438236       -1.70749236552871
H           -2.78738543636869       -2.30434430985019        0.25702423944373
H           -2.05233673698802       -4.62927805369418        0.13543908665573
H            1.97196279648603       -3.29990495193312       -0.55261108301600
H            2.57472156298189       -2.29855883054410        1.66911470167666
H            4.77837770941124       -1.76409557077828        2.63655597927861
H            6.12816613891566        0.08303647653241        1.75963321480761
H            5.31653106251631        1.45507149978533       -0.13228933710092
H            3.90360342536280        2.48288291688734       -2.26633967494666
H            2.26213622042404        2.89371772371976       -4.06901962179938
H            0.23904824188587        1.52603493951268       -4.25382442922078
H           -0.24278020650520       -0.25447679198394       -2.61039971221699
H           -3.37939090517013        1.67030346480468        3.37511213421554
H           -2.38199737571402        0.24252649504751        3.07648937910436
H           -1.88797394451526        1.80632220126824        2.43363299114177
H           -5.33358420294525        1.58907753814813        2.24259836979781
H           -7.64421063354677        0.49163779965005        0.91124114791224
H           -7.30456764945747        2.19695779421920        0.63134450888287
H           -7.54107081370776        1.10467851727741       -0.74195830823379
H           -5.61468574340617        0.10825620997716       -1.73541606575707
H           -3.01110637289940        0.27000864831611       -2.87691219461902
H           -2.15214915827053       -0.99241264925617       -1.97971665138546
H           -3.79724222510276       -1.27019392095263       -2.55203387366572
H            0.00630885170751        0.17470000468956        3.62513280700171
H           -0.06423473504420       -1.00860103546100        2.32212223388154
H            1.49704323711334       -0.53226761479244        3.02398471609201
H            2.40078444964710        1.66308409428519        2.68510012497036
