73
 energy: -103.109156885806 gnorm: 0.000068686417 xtb: 6.7.1 (edcfbbe)
C            2.80213972962389        3.99582799945230        1.34546470546279
C            1.70026995655527        3.00973692906769        1.13285532820262
C            0.69358309711750        3.23660257874688        0.19652276502209
C           -0.32801788993507        2.32991718358080       -0.00146796240371
C           -1.40158935782786        2.64073787434695       -0.99565929214733
C           -0.34889504881771        1.10724641048804        0.71297369752754
B           -1.32490980449578       -0.05163772193543        0.31315335772056
C           -0.81251634788214       -1.44181110673270       -0.01938090860116
C           -1.66761636831709       -2.58176089268555        0.06712423085355
C           -1.22808994196481       -3.86521847187063       -0.01040857619220
C            0.15197848501882       -4.13614595200449       -0.23413278372704
C            0.61946880269841       -5.43853807699354       -0.34244668309822
N            1.00875485833608       -6.52733232840076       -0.41765411884737
C            1.02350577345083       -3.04352111081131       -0.38425698322571
C            0.57330989297812       -1.74609600893037       -0.31326691370286
N            1.52126632987892       -0.73099928992872       -0.50072354127376
C            2.71451634487102       -0.62483171600987        0.18129509378084
C            3.20843005966423       -1.39737343287623        1.22595083985764
C            4.44117107136107       -1.05925675258005        1.75423280410243
C            5.17083366500207        0.01930472787361        1.26064874346087
C            4.68792151620318        0.78880065172053        0.21476398482480
C            3.45559838219250        0.46847407363936       -0.32969175910037
C            2.68154740174563        1.00888766628854       -1.41702875828142
C            2.90627829255670        2.01954597788873       -2.33707643325269
C            1.97104148662407        2.22286145668783       -3.33789505282775
C            0.84156260763857        1.41662681272542       -3.43803833602118
C            0.59591586772344        0.40490527864211       -2.52696683132663
C            1.50877732450756        0.22312998604826       -1.49905790838079
C           -2.89553226806804        0.21642992692309        0.28227450414927
C           -3.52940957637814        0.76091966910494        1.41268429652052
C           -2.76443206102514        1.05524446496074        2.66764418300397
C           -4.89509934362039        0.99723748050341        1.40469604405609
C           -5.67902374387363        0.71454325219173        0.29445638780048
C           -7.15620059721252        0.97188593085435        0.31595670955669
C           -5.05313568999597        0.17696972774747       -0.81514104904208
C           -3.68454303492229       -0.07482540799407       -0.83852569137399
C           -3.12524222474399       -0.60509943256959       -2.12797546922373
C            0.60651558607356        0.93724821324069        1.74526810869330
C            0.53188172788123       -0.20564088329580        2.71140673673962
C            1.62035580669019        1.86311759825690        1.91444135417820
H            2.86323108483461        4.69906657476809        0.51876047273000
H            3.75471535066454        3.47980285707315        1.45171825761418
H            2.62825500748085        4.56007670264908        2.26298992075197
H            0.71583512611864        4.14491361850790       -0.38940163856211
H           -1.15246412085781        3.53038009925237       -1.56912012274650
H           -2.34879259578611        2.80899068907023       -0.48420171851257
H           -1.53997093906243        1.80576794121209       -1.67650624030866
H           -2.71744756305115       -2.39856658743225        0.24665516126982
H           -1.91025288990639       -4.69752125888639        0.09314857539691
H            2.06260024893158       -3.23343346059044       -0.62072039391144
H            2.65364760672932       -2.24031349405255        1.60856964407322
H            4.84662174137019       -1.64675551519400        2.56474875329231
H            6.13028811111744        0.25189801213911        1.69831308216047
H            5.26067628632752        1.61760451065887       -0.17228364945059
H            3.79818305740422        2.62457995688509       -2.28219630558557
H            2.12831101161075        3.00523863170876       -4.06540992555307
H            0.14671152976242        1.57829726050223       -4.24850151654600
H           -0.26550094522998       -0.23499871339753       -2.62163005155635
H           -1.92980549753444        1.72175829171597        2.45931607165463
H           -3.40646867346576        1.52083382780040        3.41220984461041
H           -2.36309624760479        0.13287881344231        3.08411877098307
H           -5.36487341229705        1.40194994734553        2.29132889736145
H           -7.57804063345561        0.90371798284228       -0.68407881244993
H           -7.65540825021899        0.23773927295954        0.94972842012955
H           -7.36769437260974        1.96026980765351        0.72124805680207
H           -5.63534407806776       -0.04557937963242       -1.69958473302983
H           -3.04376483357696        0.20154469918489       -2.85838977421708
H           -2.14621538094106       -1.04811102345677       -1.98121435173266
H           -3.78769879055701       -1.36200971170031       -2.54541384017034
H           -0.02214885725375       -1.04503433430407        2.30130531006880
H            1.52954723833985       -0.53119151063296        2.99776891619337
H            0.02310797159177        0.12357502126553        3.61862734836116
H            2.36512645045500        1.69418265229787        2.68005061213809
