73
 energy: -103.187181231557 gnorm: 0.000065340806 xtb: 6.7.1 (edcfbbe)
C            3.36411459424933        3.59525619215911       -1.17098887230865
C            2.20824601754057        2.72167263377558       -0.78884872871684
C            1.34485471630625        2.22711285476386       -1.75836643704678
C            0.26963168029225        1.42005638678625       -1.43278143482889
C           -0.64755918456659        0.96301586901201       -2.52963388602176
C            0.03580686312819        1.04989158985491       -0.09356955317719
B           -1.09749399666551        0.02162663314673        0.24414194814579
C           -0.77078869403662       -1.24436318866253        1.13394481374943
C           -1.79964948684653       -1.75052114510715        1.94367367266470
C           -1.61537376335881       -2.79153424401642        2.82778035212753
C           -0.35814554560658       -3.39227266574813        2.92048998457152
C           -0.14249778684416       -4.46600393979958        3.81117223101444
N            0.03162357237893       -5.33629210893150        4.53940312786418
C            0.68689531186786       -2.92689419232394        2.12576865241716
C            0.49077560436576       -1.86295445543382        1.25329972378291
N            1.61720822340596       -1.42140180304545        0.53360620462100
C            2.77749105549622       -0.95963757920494        1.12410191695816
C            3.09158210042301       -0.82274711100604        2.46877272267786
C            4.33523389802068       -0.31551661486412        2.79471963195333
C            5.25070970426688        0.05193181815819        1.81078087731969
C            4.94564260654992       -0.08680626864017        0.47132619467156
C            3.70323105713145       -0.59793756819302        0.11959582239558
C            3.07986421473515       -0.90516711918607       -1.13618338435165
C            3.50751161186325       -0.83915660336779       -2.45546711596647
C            2.67117517711951       -1.31003015546655       -3.44795809474617
C            1.43016267217026       -1.85921220097222       -3.13535788367911
C            0.98006123346569       -1.92639188526655       -1.83039775554736
C            1.80010507247650       -1.42341969490806       -0.83293858352230
C           -2.59131437974021        0.25028420987803       -0.18963054425152
C           -3.23176777197113        1.46433948984739        0.13136560861790
C           -2.50777446793435        2.55141254404182        0.87138043754178
C           -4.56364430889638        1.66979275735591       -0.19233328575262
C           -5.31195212815913        0.70755635008613       -0.85353419970630
C           -6.74581228317504        0.94252082760636       -1.21941172131827
C           -4.68566544848709       -0.48559893404373       -1.17650800306099
C           -3.35782977648900       -0.72525995271640       -0.85297923164685
C           -2.77406677656953       -2.03453580859918       -1.30037639131580
C            0.87425407031085        1.59898040374803        0.88869106584445
C            0.60110736526168        1.42621315059873        2.35577893781429
C            1.94040632594346        2.41420769513745        0.53316053116979
H            3.92306241932840        3.15137305529273       -1.99303533395717
H            4.03493791709354        3.74290641115563       -0.32796621638692
H            3.00544245110978        4.57077217960654       -1.50170094703978
H            1.51992886776988        2.48074671611244       -2.79526877058992
H           -0.23558117704419        1.21881794429470       -3.50322912698671
H           -1.61899273202518        1.44573161094093       -2.42816428514883
H           -0.80013246165465       -0.11067556313487       -2.48905044690233
H           -2.77511341776064       -1.29257389286655        1.87325202987542
H           -2.42816928178522       -3.14836319335334        3.44261948329428
H            1.65975818086166       -3.39365114644071        2.18900611718919
H            2.39231504253246       -1.10751060907981        3.24129869265456
H            4.60350941086407       -0.20290584224660        3.83548984307221
H            6.21243743328307        0.44583095782199        2.10575305074121
H            5.65691227866642        0.19446837295600       -0.29084785253177
H            4.48219171911318       -0.44052507589851       -2.69486580116853
H            2.98694015687905       -1.27121331466818       -4.48035253010706
H            0.81001593329407       -2.24761636909410       -3.93040592504216
H            0.02872862594667       -2.37471913273608       -1.59382064472319
H           -3.16728319265416        3.39855970833849        1.04716596632873
H           -2.15093936219013        2.18706747195475        1.83210193695685
H           -1.64577297301248        2.89412156735442        0.30356040896116
H           -5.03184022952798        2.60682804267388        0.07792427647750
H           -7.12352236435468        1.85120220549293       -0.75668471951480
H           -6.84562944078245        1.03957017349641       -2.30100456999878
H           -7.36402652584290        0.10327098591527       -0.90349400182753
H           -5.24703333350705       -1.25224408864310       -1.69363456032691
H           -2.41598977717762       -1.94724484939381       -2.32742831965106
H           -1.94487145421531       -2.33856107345522       -0.66995592105473
H           -3.53232173134847       -2.81538488894627       -1.28142028115804
H            0.16563003636163        2.34552855094039        2.75064189549718
H           -0.09217829521218        0.61309161208519        2.54841272822116
H            1.52797049245358        1.24522353109626        2.89636904164211
H            2.57326183514698        2.81585877600828        1.31304943226676
