77
 energy: -130.908357289765 gnorm: 0.000100759116 xtb: 6.7.1 (edcfbbe)
O           -4.98583693501156       -2.74311155643341       -2.19204695935903
C           -4.43443885174547       -1.98235324538174       -1.37379592741147
C           -2.98017786583874       -2.02062659124704       -1.15930710727245
C           -2.16184227895208       -2.45960504861377       -2.20945143244975
C           -0.78991761397405       -2.47392559740164       -2.08536115482065
C           -0.20080027769734       -2.06353613526044       -0.89091604841751
N            1.21220042189533       -2.02194635966456       -0.75311220612549
C            1.95394968271630       -1.07735791466184       -1.44687396816425
C            1.36783424482115       -0.16702879726150       -2.32450760526557
C            2.13907852534008        0.76991184282212       -2.98813976475308
C            3.51071595343773        0.81416364020887       -2.79686529499720
C            4.11262892699256       -0.08075439270381       -1.92833944443225
C            3.34574924933910       -1.01517609852498       -1.25101147636590
O            3.99427807818228       -1.85323074309278       -0.39055157743911
C            3.25478344695676       -2.79292874402072        0.26847760273833
C            3.93293569074398       -3.66366204405127        1.10666560309841
C            3.24147982527739       -4.65159504974821        1.78581473330679
C            1.87066232724610       -4.77316551708049        1.61735268178654
C            1.18588702450686       -3.90959525936189        0.78264320502284
C            1.86206883451693       -2.89781091458530        0.10316357983504
C           -1.00428849737501       -1.68098378251470        0.18030561362053
C           -2.37521536516220       -1.65948793868264        0.04924319345888
C           -5.21490218354993       -0.97496978860939       -0.64195188859299
C           -6.62219344144045       -1.00551541800811       -0.67364873023699
C           -7.31956116737838       -0.01206375425694       -0.00895908699058
C           -6.62701317877283        0.98350355655913        0.65763476799662
C           -5.21957401782528        0.95720370397683        0.62980206801440
C           -4.44419712494953        1.96708273209491        1.36366142537869
O           -5.00009228540620        2.72581048236760        2.18066210697872
C           -2.98957298700069        2.01036328357839        1.15263776616379
C           -2.38047066066586        1.65111463564546       -0.05438565255524
C           -1.00932970330922        1.67759730835044       -0.18224136235906
C           -0.20976356361765        2.06340303171493        0.89073700605851
N            1.20370503103289        2.02712199485200        0.75616553379706
C            1.94740344617119        1.08521845281442        1.45150522990166
C            1.36269008084700        0.17260317500662        2.32769017643872
C            2.13593406760411       -0.76145839290840        2.99305994495012
C            3.50816518555758       -0.80051446046308        2.80495671150690
C            4.10869901558133        0.09670264357808        1.93784722966244
C            3.33986603324991        1.02827358242051        1.25881250534826
O            3.98720324036986        1.86881755921436        0.39986908143327
C            3.24565852730909        2.80563765760830       -0.26097050175150
C            3.92239731231944        3.67872932009372       -1.09784280526693
C            3.22874543079680        4.66391744584354       -1.77874281681917
C            1.85711759970340        4.78039903898649       -1.61332510362126
C            1.17373852597707        3.91446167374015       -0.77991607206990
C            1.85220212307705        2.90534199843798       -0.09875669208113
C           -0.80315730284962        2.47188753295616        2.08370498345634
C           -2.17530485201025        2.45253077167132        2.20459800482781
N           -4.56482975650451       -0.00788157765979       -0.00517324769167
H           -2.63648230277661       -2.77412745138605       -3.12745691435887
H           -0.16922158000525       -2.79965181929282       -2.90714658802693
H            0.30329235274994       -0.20896616964268       -2.48952128227718
H            1.66292118024213        1.46481875560012       -3.66173377890144
H            4.11052938016509        1.53954450805983       -3.32147079281138
H            5.17618650758281       -0.06914494155887       -1.75385441414407
H            5.00068969904044       -3.55228975025402        1.20408444520438
H            3.77298823356161       -5.32742284948428        2.43645293077670
H            1.32736083504431       -5.54918446597211        2.13332009195260
H            0.12201827593134       -4.01792153132133        0.64491472557546
H           -0.54062240676831       -1.39869364923802        1.11240934408081
H           -2.98493097649209       -1.36264000215426        0.88636411497803
H           -7.11230398276638       -1.80340503394574       -1.20918266219929
H           -8.40066675797911       -0.01366947020905       -0.01044385233832
H           -7.12098800297688        1.77993701222754        1.19178454906719
H           -2.98711267104502        1.35181351707004       -0.89286788033115
H           -0.54242875253502        1.39681188707340       -1.11318183687294
H            0.29760702546074        0.21046507556856        2.49018211018888
H            1.66085126818910       -1.45821520353208        3.66549730368614
H            4.10950096336439       -1.52363416112270        3.33093941172209
H            5.17268962764465        0.08909759580180        1.76579830220961
H            4.99077293129423        3.57133068382607       -1.19289325887879
H            3.75915078491417        5.34154737249105       -2.42840353531559
H            1.31205221412700        5.55423878180503       -2.13069679053021
H            0.10916807361656        4.01883384303829       -0.64455898662089
H           -0.18555584547574        2.80012391588378        2.90681606339480
H           -2.65325035315229        2.76557755015852        3.12139000734092
