77
 energy: -130.961780382850 gnorm: 0.000058473579 xtb: 6.7.1 (edcfbbe)
O           -4.91285431366626       -2.31468475954914       -2.62138170776213
C           -4.39107158710610       -1.76921501936946       -1.66112203425324
C           -2.95375068093983       -1.89342101848704       -1.35967456342821
C           -2.06494560568734       -2.04132087725390       -2.42780816623420
C           -0.70644691859783       -2.10765042871901       -2.20865996792682
C           -0.20347295988362       -2.06166752253777       -0.90730571613935
N            1.18502055145841       -2.11129029486597       -0.68731958861848
C            2.02130994206924       -1.14343978528660       -1.25415386966741
C            1.52038701239593       -0.03255397175727       -1.92195709492376
C            2.37064738245216        0.91301376410914       -2.47352502466741
C            3.73926045792442        0.76783641084341       -2.36273555204945
C            4.25548985003908       -0.31512716340569       -1.66833133939121
C            3.40932395112458       -1.25492287445016       -1.10737618492621
O            3.99502340066940       -2.27668696564622       -0.40377701937812
C            3.16151408794965       -3.19972306082665        0.17977180282270
C            3.76742651283684       -4.21906695942779        0.89176986672382
C            3.00303534177450       -5.21905304090184        1.47366834185558
C            1.63154887871947       -5.20182502802232        1.31582061281345
C            1.01958938393597       -4.18105551344317        0.60420504117183
C            1.76734976063144       -3.15048488269660        0.04700770835570
C           -1.09159742044757       -1.96794398534816        0.16383078440869
C           -2.44961549978742       -1.87422032249373       -0.05865848080473
C           -5.19320231451857       -0.87340927003858       -0.77374863581111
C           -6.58929380681673       -0.91026427834889       -0.81322074833526
C           -7.29806003802371       -0.02253801143426       -0.02008383953165
C           -6.59631236371363        0.86704295893067        0.77718916592719
C           -5.19991160439490        0.83441488235926        0.74534127911323
C           -4.40535988293321        1.73141904503321        1.63828760586888
O           -4.93377428303234        2.27205979590744        2.59769352634287
C           -2.96737404380406        1.86338577183701        1.34358105548277
C           -2.45726492491083        1.84983104005453        0.04483937631622
C           -1.09900005692392        1.95432835169571       -0.17142974006392
C           -0.21628889519936        2.05318805336335        0.90373742877066
N            1.17259456509389        2.11618617474078        0.69005645741631
C            2.01560881296931        1.15720164244376        1.26205262889259
C            1.52225365106141        0.03923850908944        1.92365889827032
C            2.37895884194763       -0.89665463755090        2.48169680082083
C            3.74665377875102       -0.73474233966519        2.38325497970564
C            4.25589264418779        0.35501764822873        1.69440724761115
C            3.40336965663784        1.28520408715465        1.12709197183364
O            3.98275423404593        2.31439928784354        0.42918149199765
C            3.14328108167921        3.22816976310733       -0.16033305843325
C            3.74321690636019        4.25486691161996       -0.86682099363860
C            2.97223812771257        5.24672444231224       -1.45385092026493
C            1.59986112497771        5.21394672252912       -1.30658992997869
C            0.99393398295388        4.18571788424492       -0.60057760547151
C            1.74874998462299        3.16289995201573       -0.03861616148749
C           -0.72534072316530        2.09155847725308        2.20301013575177
C           -2.08424953865285        2.01486857938938        2.41594983511759
N           -4.52480169820894       -0.01828670553407       -0.01257208698910
H           -2.46204152048949       -2.08873641724171       -3.43112616589398
H           -0.02416995226834       -2.20633530904009       -3.03992013816107
H            0.45329593703658        0.09077351319846       -2.01055544350702
H            1.95403388683695        1.76502650710610       -2.98868363944577
H            4.40602804269091        1.49602371772839       -2.79616481209706
H            5.31838469155623       -0.44627971354348       -1.54168103828105
H            4.84315484507179       -4.21456185647212        0.97041663301888
H            3.48438490211307       -6.00834290432885        2.02929727678550
H            1.02318704378803       -5.98566633818270        1.74025673848690
H           -0.05000330852695       -4.19733899626530        0.46960451906667
H           -0.70688213085094       -1.95516988419731        1.17163481205410
H           -3.12170245442788       -1.79895059425842        0.78057607105893
H           -7.07989979926162       -1.62585514641682       -1.45471505501006
H           -8.37780368653254       -0.02404368401268       -0.02312049692896
H           -7.09260200967405        1.58086737740837        1.41626749134751
H           -3.12501528181936        1.77081768660394       -0.79752118119260
H           -0.70968055767756        1.94639970459532       -1.17747958580898
H            0.45597335220442       -0.09729017333772        2.00220043518538
H            1.96817002667512       -1.75444216184426        2.99192751029776
H            4.41830332403049       -1.45529202338267        2.82186380050448
H            5.31819592214862        0.49910602167108        1.57712178765473
H            4.81952782041190        4.26263766574420       -0.93690242924819
H            3.44902612941390        6.04180244534647       -2.00512721923714
H            0.98602124234345        5.99130891072058       -1.73502544683328
H           -0.07676114987541        4.19014343171971       -0.47422362971184
H           -0.04757581710368        2.19320832250776        3.03760219786680
H           -2.48606048781509        2.05715986682980        3.41761423022166
