77
 energy: -130.908033750551 gnorm: 0.000040654113 xtb: 6.7.1 (edcfbbe)
O           -4.92630259343870       -2.40975529370060       -2.56425450745725
C           -4.39513197671139       -1.79117419801250       -1.62227197966994
C           -2.95288501869240       -1.89831000630421       -1.35632937363731
C           -2.09549511968920       -2.20493958514415       -2.42193699529607
C           -0.73349760058477       -2.29382317840475       -2.23642422021608
C           -0.19413773943277       -2.09883660915674       -0.96596035724536
N            1.20987085782795       -2.16647506406015       -0.76281430561342
C            2.03800437867432       -1.18548110078894       -1.28470375703345
C            1.53866213835599       -0.08894416410321       -1.98530539163722
C            2.39331660288933        0.86996452788989       -2.49724460040656
C            3.76391647631590        0.75229085178264       -2.32611019143603
C            4.27879380058985       -0.32215999980228       -1.62174856477452
C            3.42805461004541       -1.28037716013504       -1.09345153441047
O            3.99315449697334       -2.30102150452311       -0.38703352245673
C            3.16447436688888       -3.25189493063810        0.13770027491671
C            3.75359655563259       -4.28463267113370        0.84917086567585
C            2.97065744062138       -5.29221299580391        1.38638617112045
C            1.59739284380919       -5.27164488978173        1.19769977910295
C            1.00077738805566       -4.24513813452121        0.48863010602854
C            1.76990414665843       -3.21068597407923       -0.04173817002659
C           -1.03913173145039       -1.84118843996098        0.11091138155291
C           -2.39945862207836       -1.74019474934984       -0.08110261280010
C           -5.18469400092521       -0.88862749514505       -0.77337649443202
C           -6.59138302375028       -0.91151820454963       -0.81746104202151
C           -7.29127741646792       -0.02404481685451       -0.01858219565391
C           -6.60116699465644        0.86735875285468        0.78446529749300
C           -5.19418110978183        0.85252418041212        0.74860864984692
C           -4.41467138516724        1.75923395097177        1.60238331519420
O           -4.95445877487680        2.37343625699810        2.54229220468177
C           -2.97185662812738        1.87580359723480        1.34361730926755
C           -2.41148269153977        1.72296309494621        0.07078090903318
C           -1.05100655105667        1.83348631814002       -0.11476893187183
C           -0.21276325688304        2.09557708447204        0.96631823330538
N            1.19152300168378        2.17390598175209        0.76928620264759
C            2.02502864556324        1.19894605267321        1.29394514082160
C            1.53139325870886        0.09853991493728        1.99252243380994
C            2.39136223995027       -0.85396908734985        2.50750670060269
C            3.76165534726628       -0.72596376207974        2.34140805158260
C            4.27099200306997        0.35232080481506        1.63888402518868
C            3.41500850188740        1.30421450511322        1.10763803082403
O            3.97502932714757        2.32904369999377        0.40321644142772
C            3.14121553391547        3.27392652423562       -0.12420172246935
C            3.72516107390834        4.31097772301354       -0.83366418317025
C            2.93672898604167        5.31302714702190       -1.37319575415901
C            1.56306628025439        5.28257306928263       -1.18884947770846
C            0.97158149187228        4.25160800061086       -0.48195940432985
C            1.74639477454998        3.22250075182787        0.05053859307217
C           -0.75925947962567        2.28500605349585        2.23456397978756
C           -2.12150022689448        2.18670095900411        2.41360096688411
N           -4.53637141149948       -0.01610075226411       -0.01054200109339
H           -2.53115261948187       -2.36001232337496       -3.39814496356507
H           -0.08103522372732       -2.51701201764426       -3.06784163070695
H            0.47386530680495       -0.00483602805943       -2.12933140238214
H            1.98519577475298        1.71079050465172       -3.03631568385136
H            4.42963785022342        1.49562398705839       -2.73364008888961
H            5.33880897157114       -0.43675557782630       -1.46402035300504
H            4.82554137136166       -4.28057838345312        0.96399391222293
H            3.43338339618089       -6.09341730723505        1.94007187350214
H            0.98238100190962       -6.06091167245293        1.60080135446859
H           -0.06630119095107       -4.24223240494934        0.33483257805378
H           -0.62027659121949       -1.72546654927618        1.09824498687626
H           -3.04188112191313       -1.54532041898792        0.76162243291871
H           -7.07989003506415       -1.62484113202638       -1.46261060688066
H           -8.37237497263338       -0.02708240273328       -0.02175617558355
H           -7.09754355936037        1.57776142165950        1.42681464924359
H           -3.04864315625918        1.52480965711895       -0.77517872005570
H           -0.62672317397551        1.72209151487028       -1.10028599083492
H            0.46673505921360        0.00625159358460        2.13251548722037
H            1.98763524235310       -1.69792541499791        3.04499812432267
H            4.43146319517297       -1.46429360945053        2.75132692146054
H            5.33067421203833        0.47479915160726        1.48486532019493
H            4.79747083783187        4.31464575719502       -0.94507479508187
H            3.39545109326100        6.11759960841003       -1.92531479180961
H            0.94370009833651        6.06753388875664       -1.59368258662673
H           -0.09594583547837        4.24101241964569       -0.33164597548704
H           -0.11225893179712        2.51161772461929        3.06932441944102
H           -2.56272638187454        2.33753251511256        3.38797122846935
