97
 energy: -159.321149328875 gnorm: 0.000053249195 xtb: 6.7.1 (edcfbbe)
C           -9.37987229290284       -3.57918625356330       -3.56436279646909
C          -10.12542016832844       -2.76022212358894       -2.72951328922958
C           -9.49230624180121       -1.89689280684342       -1.85735026180788
C           -8.09813321273555       -1.84173000116265       -1.80910927048153
C           -7.42953490675893       -0.93237833964187       -0.88436085834918
N           -8.20181490357705       -0.13933419994631       -0.11298381912052
C           -7.54810829464098        0.67948879473655        0.73670652339770
C           -8.34505145309809        1.56207092618574        1.58230430152848
C           -7.72556293792890        2.41524998398521        2.49792681853443
C           -8.48335248137741        3.25013839251687        3.29381819621118
C           -9.86719542990022        3.24843620779932        3.18879890334398
C          -10.49008600171708        2.40430390260490        2.28162071444092
C           -9.73753807731334        1.56628610199026        1.48260050540854
N           -6.24342959437692        0.71637382814424        0.84176410156734
C           -5.50877767400294       -0.09116424799052        0.03541943895701
C           -4.09223292231712       -0.06518674309320        0.11411225418734
C           -3.30079182624739       -0.89619336216444       -0.71148991161435
C           -1.93389658056875       -0.86759550068451       -0.63716250859639
C           -1.28987074119751       -0.00902496397211        0.26645084108778
N            0.10672250273795        0.02178842968926        0.34206491784842
C            0.88777412191218        1.15464323779853        0.31664958086127
C            0.51829585360388        2.48666968453207        0.16272745804351
C            1.51609677606507        3.43877033959986        0.15188071491777
C            2.87147969225733        3.10125420784965        0.28941872313151
C            3.89597737149246        4.15248133637296        0.28924540483746
C            4.98429612993893        4.06732109604072        1.17146224822954
C            5.96755984466281        5.03565754857916        1.22162815070223
C            5.85272386871848        6.10731683731074        0.35247262545588
O            6.71029568130225        7.15875849954828        0.23977373546073
C            6.20084267228997        7.96295327559817       -0.73940164917044
C            6.74536305854008        9.15157996964436       -1.19070285468920
C            6.06754908768688        9.81529615250086       -2.19909993217714
C            4.88730375571055        9.30887785652978       -2.73746259067657
C            4.34413027123863        8.12179033594286       -2.28416533907238
C            5.00674755282788        7.43862320075372       -1.27281731488363
C            4.77422295166388        6.21426203860086       -0.54984621331337
C            3.79222239471327        5.23742509846106       -0.57722906855119
C            3.23769580594161        1.75979458914603        0.41695430194066
C            2.25398066241048        0.78997269296453        0.42005613220080
C            2.28132704218124       -0.64863293597945        0.50900094779077
C            3.30055490282964       -1.57239551141860        0.63639889472741
C            2.98399592892818       -2.93022653200369        0.71406576727875
C            4.04721577788576       -3.93488976567797        0.83273011788345
C            5.16955231159590       -3.68037758039923        1.63642416321716
C            6.19333725979278       -4.59567375573818        1.78118127337667
C            6.08346984078503       -5.79117983049679        1.09126476808538
O            6.97911063322304       -6.81647818186080        1.09139934239248
C            6.45840860628084       -7.77791955027289        0.27287725576323
C            7.03184922503881       -9.00067747323662       -0.02563400199166
C            6.33430307050123       -9.83406162214714       -0.88349599339112
C            5.10700973162538       -9.45879658661411       -1.42401349085890
C            4.53571570875170       -8.23663484234186       -1.12454080666581
C            5.21770771814901       -7.38401081165961       -0.26638780069930
C            4.96869244079035       -6.07210785029550        0.27446642726488
C            3.94766163216113       -5.14446794967666        0.14967372981507
C            1.63835728577903       -3.32964588227613        0.68556984851826
C            0.60609523279646       -2.42273862843831        0.56883020895511
C            0.92997790635812       -1.07444371854893        0.45809254615835
C           -2.06200690369848        0.81925814807311        1.09497363740384
C           -3.42877230161027        0.79338068789553        1.02045238001229
N           -6.12065329418997       -0.92216680971230       -0.84618911696805
C           -7.35468472681192       -2.66971488118805       -2.65274520058113
C           -7.99352799852724       -3.53023935127351       -3.52240806826080
H           -9.87713534788396       -4.25372805927700       -4.24565179906298
H          -11.20481318715278       -2.79656663833904       -2.75997730437776
H          -10.05827904764617       -1.25439524452883       -1.20020561013176
H           -6.64851116557809        2.40527392521699        2.56821133147485
H           -7.99655318518968        3.90703455615813        4.00011525911910
H          -10.45781573560875        3.90299192229433        3.81259587929733
H          -11.56728614190415        2.40157047891092        2.19805969044306
H          -10.20743755987755        0.90469084543042        0.77087430046057
H           -3.80422645794666       -1.54436023088281       -1.41201189988541
H           -1.33882786658281       -1.48128565247042       -1.29761880997031
H           -0.51697792247709        2.76814197834313        0.04850389389693
H            1.24536607008538        4.47917837192146        0.05655226226644
H            5.03880126789432        3.23198333206951        1.85261235466359
H            6.79380493579164        4.96870075634463        1.91147558771609
H            7.65991546564932        9.53771129960905       -0.76922857694242
H            6.46433119326280       10.74605806135850       -2.57562746243871
H            4.38983955922615        9.85692584039759       -3.52371489360992
H            3.42938955602317        7.73118485588089       -2.70269523232774
H            2.97560408966486        5.30652650373382       -1.27872505061432
H            4.27831393809008        1.48266736681853        0.48107592592463
H            4.32991003508635       -1.25017612519529        0.65081661271624
H            5.22146265614081       -2.75003388440123        2.18074285185415
H            7.04734524387787       -4.39542109136769        2.40863067621120
H            7.98263519108343       -9.28508226444762        0.39648743411449
H            6.75266863606685      -10.79614592417902       -1.13816145776423
H            4.59538019161583      -10.13775033891087       -2.08975066254704
H            3.58492903187769       -7.94728818285077       -1.54485406579183
H            3.10333406600951       -5.34822827354162       -0.49006583744689
H            1.40401136826951       -4.37799755081327        0.78948047875956
H           -0.42230761053692       -2.74903750195554        0.58022235133191
H           -1.56676362115508        1.45362636315232        1.81559639428818
H           -4.03031084064362        1.41854237757975        1.66201727109198
H           -6.27727920311996       -2.62049892257287       -2.60923808195979
H           -7.41142992362624       -4.16762598906797       -4.17218747230792
