  97
       -159.32999412
 C         -9.3573525062       -3.6049455949       -3.4911486114
 C        -10.1066910829       -2.6926214610       -2.7645251552
 C         -9.4818552091       -1.8147248945       -1.9004094853
 C         -8.0959913122       -1.8435859877       -1.7584217878
 C         -7.4315472293       -0.9148738646       -0.8444955016
 N         -8.1922702929       -0.0979730242       -0.1221008752
 C         -7.5494987849        0.7251246028        0.7009130127
 C         -8.3462692659        1.6371019781        1.5210794402
 C         -7.7194790223        2.5240159933        2.3942114351
 C         -8.4754588000        3.3834185932        3.1673752758
 C         -9.8587048601        3.3661248954        3.0764609347
 C        -10.4869983302        2.4855687852        2.2093723024
 C         -9.7369252817        1.6234276080        1.4335090203
 N         -6.2256368326        0.7701249060        0.8218920033
 C         -5.5425832217       -0.0770292364        0.0577831711
 C         -4.0842722677       -0.0576651250        0.1484908711
 C         -3.3177281051       -0.8864733524       -0.6693080684
 C         -1.9419858096       -0.8627981487       -0.5919076138
 C         -1.3067780055       -0.0112355533        0.3117063434
 N          0.0886770905        0.0169051618        0.3883857029
 C          0.8766987912        1.1516280545        0.3725280688
 C          0.5141639656        2.4840967923        0.2377945292
 C          1.5186122511        3.4298570379        0.2191210385
 C          2.8719553464        3.0829047856        0.3276375916
 C          3.9021756188        4.1333367887        0.3117968863
 C          4.9876362811        4.0611065987        1.1945838732
 C          5.9779713775        5.0241458063        1.2238177215
 C          5.8673373111        6.0792672287        0.3361504766
 O          6.7290155460        7.1255988557        0.2017285871
 C          6.2215822766        7.9106725669       -0.7885555298
 C          6.7676939169        9.0886041378       -1.2658459257
 C          6.0894159730        9.7352162145       -2.2840547136
 C          4.9052127567        9.2240543642       -2.8087948458
 C          4.3600184616        8.0482592465       -2.3311325651
 C          5.0234199206        7.3821950165       -1.3095921616
 C          4.7884480570        6.1733696103       -0.5648859241
 C          3.8031467845        5.1987500109       -0.5745978777
 C          3.2303164211        1.7456099243        0.4378049063
 C          2.2377165057        0.7786054247        0.4515875482
 C          2.2633982365       -0.6565652700        0.5247225699
 C          3.2886624315       -1.5819283229        0.6377877427
 C          2.9776584055       -2.9336489050        0.7143181571
 C          4.0438189268       -3.9409751078        0.8277636624
 C          5.1585675911       -3.6923044436        1.6396688311
 C          6.1852555512       -4.6056784234        1.7816373462
 C          6.0801260765       -5.7963493060        1.0854866306
 O          6.9744614163       -6.8235563745        1.0877014174
 C          6.4560345042       -7.7799842812        0.2687072554
 C          7.0249347048       -9.0057316666       -0.0266656336
 C          6.3285127389       -9.8374750946       -0.8856329910
 C          5.1049564284       -9.4589107857       -1.4319905144
 C          4.5377455826       -8.2345603018       -1.1369243842
 C          5.2187221154       -7.3832142104       -0.2773841080
 C          4.9702401087       -6.0725030450        0.2629480698
 C          3.9509713128       -5.1420352984        0.1346426245
 C          1.6347348901       -3.3351152062        0.6955946265
 C          0.5985526195       -2.4307581271        0.5861324639
 C          0.9172347892       -1.0845188764        0.4792740744
 C         -2.0714803307        0.8143835560        1.1355294807
 C         -3.4468708759        0.7923487913        1.0509449361
 N         -6.1029366304       -0.9390667548       -0.7854226955
 C         -7.3471500499       -2.7621203541       -2.4913632961
 C         -7.9783578775       -3.6380751451       -3.3528317267
 H         -9.8484856309       -4.2905791693       -4.1662562027
 H        -11.1808453894       -2.6675497602       -2.8757235742
 H        -10.0484251037       -1.0974152327       -1.3278291807
 H         -6.6422489988        2.5250976756        2.4502517168
 H         -7.9884441647        4.0695598788        3.8449297092
 H        -10.4476771813        4.0385123237        3.6831694428
 H        -11.5650410850        2.4727783029        2.1419250004
 H        -10.2083872110        0.9311220131        0.7538871023
 H         -3.8207973655       -1.5351211278       -1.3688091983
 H         -1.3459725368       -1.4840334472       -1.2435831016
 H         -0.5197174385        2.7780101416        0.1409803136
 H          1.2546480261        4.4737047315        0.1385761419
 H          5.0384925515        3.2350652057        1.8878541676
 H          6.8051587073        4.9636964408        1.9129225225
 H          7.6850944840        9.4798127628       -0.8561704774
 H          6.4880293387       10.6569556171       -2.6803716290
 H          4.4078517164        9.7586694239       -3.6043491589
 H          3.4428531947        7.6515628576       -2.7388652547
 H          2.9843507680        5.2578819548       -1.2749580841
 H          4.2699763303        1.4593240972        0.4828811046
 H          4.3167369234       -1.2539457286        0.6469420067
 H          5.2056007643       -2.7634200150        2.1875241679
 H          7.0363195480       -4.4057771480        2.4129047064
 H          7.9723491933       -9.2937409184        0.3999078429
 H          6.7430768514      -10.8022149044       -1.1363320558
 H          4.5924885003      -10.1384096139       -2.0964812688
 H          3.5894905437       -7.9417175459       -1.5610291696
 H          3.1090106751       -5.3423733785       -0.5099192365
 H          1.4046610210       -4.3849570533        0.7987888550
 H         -0.4276279424       -2.7648580605        0.6014420651
 H         -1.5771543828        1.4538054936        1.8514780949
 H         -4.0495965500        1.4223669521        1.6856642438
 H         -6.2753500001       -2.7742037398       -2.3702626495
 H         -7.3968335687       -4.3499135043       -3.9203401745
