53
 energy: -89.170973069843 gnorm: 0.000087263937 xtb: 6.7.1 (edcfbbe)
C           -2.14713369439469        4.86556906977772        0.21414678596071
C           -3.53647183461263        4.75796245127320        0.24066041346643
C           -4.16929138614711        3.52614693114384        0.18736906647743
C           -3.36451007018683        2.40892561363129        0.10860067794670
C           -1.94205979965912        2.50489137207331        0.07763275682138
C           -1.33305026715909        3.75368529740399        0.13305204345476
N           -1.36688082437089        1.26138059171601       -0.01048253615498
C           -2.38472543359457        0.43511461573539       -0.02255056298027
N           -2.55729479439047       -0.91601428470115       -0.08567626182162
C           -1.53562750930441       -1.85908149415486       -0.15381890570073
C           -0.22685284262309       -1.48045355033614        0.00089689116777
C            0.82063448456171       -2.44308522019473       -0.04266261183612
C            2.18796137857809       -2.07437916393221        0.02806233653494
C            3.21532805875921       -3.04459545364572        0.26477945916163
C            4.54312681535959       -2.72299438657962        0.34124640839293
C            4.90339821082082       -1.38551416605397        0.16923943227115
O            6.15771907183726       -0.86127664484631        0.19659641815784
C            6.01973838759808        0.47467099907598       -0.02457206783764
C            7.04016522827513        1.40638735879680       -0.08684349526030
C            6.68288093412392        2.72419473665385       -0.32538074010615
C            5.35447896422139        3.09668508021487       -0.49544162368666
C            4.33381900497349        2.16160251363972       -0.43310467491689
C            4.66783879272234        0.83852759501029       -0.19591255339613
C            3.92111758068117       -0.39042528677430       -0.06809195772474
C            2.59022703665140       -0.71512393658118       -0.13973864720367
C            0.38002448649770       -3.80491858633580       -0.21060891478456
C           -0.94572302522949       -4.07600723184415       -0.36658007873468
N           -1.90887026881049       -3.14759226117604       -0.33620037182255
C           -3.92945695760408       -1.14951549475271       -0.05680763293654
C           -4.64850309810112       -2.33212483497786       -0.09216077442367
C           -6.02975671067536       -2.24698008592026       -0.06898637129991
C           -6.68503481772243       -1.02054760712425       -0.00087830269929
C           -5.98035598191737        0.17071229094623        0.04376559988724
C           -4.60082791035879        0.09622750926342        0.01709481319004
N           -3.61737438774507        1.05670660596681        0.04133807882610
H           -1.69934762277338        5.84712067742767        0.25933775146996
H           -4.13438918789154        5.65444761447094        0.30449937203436
H           -5.24524796302346        3.44765234709698        0.20692935428435
H           -0.25860235569053        3.83613821624145        0.11526856332984
H           -0.03153209088399       -0.44585186662284        0.22891238001589
H            2.93113868213615       -4.07240369896135        0.42024560525852
H            5.29573985122910       -3.47177273142366        0.53192417108723
H            8.06895179725210        1.11167008611031        0.04459520484941
H            7.45522314104022        3.47657977944510       -0.38060642850454
H            5.11663241386410        4.13362928875930       -0.67980797647451
H            3.30275402095319        2.45079880079830       -0.56612940808278
H            1.86092219767361        0.05028203610660       -0.34490546282254
H            1.08887546830950       -4.61234184159455       -0.27837980746252
H           -1.29660250190136       -5.08456773231178       -0.53861670375849
H           -4.13273313747740       -3.27703712878862       -0.13932095484196
H           -6.61303461058985       -3.15424199833294       -0.09850912251237
H           -7.76366140357100       -0.99653361062518        0.02227950315828
H           -6.48617727973818        1.12134931797705        0.09784951096146
