53
 energy: -89.171012156842 gnorm: 0.000074125052 xtb: 6.7.1 (edcfbbe)
C           -2.16075138247849        4.87589766538470       -0.04247379265614
C           -3.54811344266303        4.76560125019938       -0.11739130418946
C           -4.17785672369307        3.53103490417915       -0.12393453732484
C           -3.37199961873218        2.41400742035821       -0.05483315197823
C           -1.95152323820589        2.51249533281724        0.02488375485215
C           -1.34566213042088        3.76410748568521        0.02905801369835
N           -1.37496431291169        1.26847102093032        0.09311632074431
C           -2.38994549855076        0.43970036799128        0.04852241294712
N           -2.55999393313716       -0.91291157298175        0.06882162557862
C           -1.53862839723816       -1.85559591793816        0.14417352340382
C           -0.22890482196043       -1.47513465531847        0.00568492728487
C            0.81850801213848       -2.43703550990658        0.05216212849351
C            2.18528690279216       -2.06906520981479       -0.03593934415755
C            3.21152824143297       -3.04338414412985       -0.26039578597640
C            4.53819513034755       -2.72288339782889       -0.35858516898026
C            4.89893587945083       -1.38112327049293       -0.22545801768817
O            6.15177176778662       -0.85583127419209       -0.28431849224510
C            6.01417788572404        0.48533368732417       -0.09741292973617
C            7.03306211063909        1.42066227294898       -0.07826096007207
C            6.67622118645081        2.74398737487030        0.12806208810820
C            5.34974153783433        3.11838658981260        0.30875050763206
C            4.33066249721857        2.17972244910307        0.28969898237131
C            4.66424638444169        0.85113315912777        0.08509999493236
C            3.91834259618124       -0.38205851742621        0.00057246480831
C            2.58883730804477       -0.70624637904275        0.09709208168900
C            0.37657695537792       -3.79901937432149        0.21863390689169
C           -0.95079037934559       -4.07223357807994        0.35935082552634
N           -1.91361809530839       -3.14419185794649        0.32807145910042
C           -3.92929896620312       -1.14913006153621       -0.01236789617454
C           -4.64413726211162       -2.33456274355473       -0.03740453045370
C           -6.02407661833372       -2.25289041439177       -0.10597570599029
C           -6.68140860181405       -1.02684213354561       -0.16059608160510
C           -5.98050458678150        0.16745038700910       -0.14544142562228
C           -4.60246385127631        0.09641495087300       -0.07315177067800
N           -3.62217243778889        1.05973202485117       -0.03700858254974
H           -1.71536509258264        5.85957155073595       -0.04112082803481
H           -4.14693219459424        5.66211797885523       -0.17153684805876
H           -5.25235979989257        3.45040476502411       -0.18023813900606
H           -0.27273559807097        3.84887992650510        0.08515805211530
H           -0.03308011829353       -0.43811330506005       -0.20979139306750
H            2.92791382671454       -4.07533404094446       -0.38619450623127
H            5.28937968780562       -3.47589026042297       -0.53793030156092
H            8.06030747071469        1.12460644484033       -0.21845121815957
H            7.44731681443246        3.49938606174172        0.14868262875293
H            5.11217665945475        4.15975120141372        0.46668286017087
H            3.30105599502712        2.47040454985848        0.43049577886003
H            1.86253165838233        0.06393493903158        0.29449762190836
H            1.08497866616982       -4.60584888299888        0.29677815422835
H           -1.30190861800815       -5.08105444189507        0.52956500399548
H           -4.12648025344867       -3.27890781571783       -0.00002400317561
H           -6.60445214250206       -3.16230035747972       -0.12416259190629
H           -7.75863103346043       -1.00538708700177       -0.22125126897634
H           -6.48809393647863        1.11766392989735       -0.18946361182780
