  53
        -89.16664832
 C         -2.1385712649        4.8679249083       -0.0515369211
 C         -3.5262463296        4.7618138145       -0.1309087168
 C         -4.1610571573        3.5283225734       -0.1337180798
 C         -3.3599819381        2.4095065685       -0.0570929545
 C         -1.9379846035        2.5032156215        0.0267673323
 C         -1.3274196631        3.7542303699        0.0276522618
 N         -1.3665993575        1.2605852372        0.1015430691
 C         -2.3848454645        0.4314432292        0.0553522078
 N         -2.5582125027       -0.9207083433        0.0779812728
 C         -1.5414414517       -1.8674809620        0.1511335268
 C         -0.2298004743       -1.4822973202        0.0111535540
 C          0.8154817158       -2.4410254061        0.0535832912
 C          2.1823257185       -2.0695101204       -0.0416402075
 C          3.2085105390       -3.0396942326       -0.2836360195
 C          4.5336815580       -2.7150202462       -0.3898548154
 C          4.8921517922       -1.3733092092       -0.2466868073
 O          6.1423270980       -0.8428650030       -0.3097659302
 C          6.0028648478        0.4953423842       -0.1071402094
 C          7.0193187427        1.4338807824       -0.0859100549
 C          6.6600889070        2.7541289278        0.1385134760
 C          5.3345323309        3.1225596672        0.3350079722
 C          4.3176144882        2.1802690499        0.3141772378
 C          4.6533866028        0.8555304163        0.0912530255
 C          3.9101028584       -0.3787153639       -0.0009493556
 C          2.5830879584       -0.7074039343        0.1034608076
 C          0.3747674196       -3.8025767781        0.2168124250
 C         -0.9560419985       -4.0743670110        0.3576023681
 N         -1.9216082008       -3.1533889716        0.3332845149
 C         -3.9284445394       -1.1522945236       -0.0036672354
 C         -4.6466330114       -2.3356494752       -0.0247760032
 C         -6.0265501938       -2.2495216775       -0.0962590466
 C         -6.6797886918       -1.0206809373       -0.1569218481
 C         -5.9759846822        0.1714724211       -0.1444954778
 C         -4.5975627441        0.0963580563       -0.0697737644
 N         -3.6143596520        1.0556696718       -0.0351326285
 H         -1.6902098122        5.8502356924       -0.0531401294
 H         -4.1220374232        5.6599865713       -0.1907082714
 H         -5.2356726221        3.4521206327       -0.1930393715
 H         -0.2543908529        3.8351252154        0.0866917469
 H         -0.0341152277       -0.4451985056       -0.2036699352
 H          2.9253921651       -4.0714883860       -0.4146398966
 H          5.2855844211       -3.4646724300       -0.5815936917
 H          8.0462862942        1.1428185548       -0.2380605795
 H          7.4292294468        3.5114965405        0.1611843773
 H          5.0951352855        4.1608987878        0.5082324505
 H          3.2884203748        2.4662230507        0.4672380958
 H          1.8563457402        0.0585847170        0.3156719279
 H          1.0840414077       -4.6087610719        0.2937293897
 H         -1.3028539555       -5.0854636015        0.5267099814
 H         -4.1297635490       -3.2800158789        0.0170868979
 H         -6.6101932197       -3.1567418589       -0.1124231105
 H         -7.7568921232       -0.9961500361       -0.2200003052
 H         -6.4805454308        1.1231263560       -0.1921800448
