  94
       -137.54668240
 C         -2.6894299025        2.0202172333       -0.0225816775
 C         -3.2225687013        0.7966637652        0.1242630004
 C         -4.6309407182        0.4670369472        0.0916178911
 C         -5.0338098662       -0.8333930604        0.4169461875
 C         -6.3589174395       -1.2051512498        0.4004364035
 C         -7.3469143162       -0.2856058431        0.0416717711
 N         -8.6908218546       -0.6552465911        0.0119039732
 C         -9.0575900115       -1.9498200213       -0.3761802808
 C         -8.3731948544       -2.6034748900       -1.4006094802
 C         -8.7396825902       -3.8808355533       -1.7773991411
 C         -9.7949561558       -4.5224395456       -1.1498142631
 C        -10.4817837552       -3.8752924598       -0.1356196182
 C        -10.1172469243       -2.6013494729        0.2543769926
 C         -9.6831204708        0.2694806755        0.3603225981
 C         -9.4760618485        1.1707175315        1.4043366446
 C        -10.4575540963        2.0824139306        1.7411985131
 C        -11.6598024869        2.1060891231        1.0533490215
 C        -11.8726146098        1.2093546083        0.0191181411
 C        -10.8940402422        0.2994763330       -0.3308627040
 C         -6.9563509204        1.0135872681       -0.2929830863
 C         -5.6302376497        1.3792708285       -0.2645082091
 C         -1.2813372945        2.3564883011       -0.0103895469
 C         -0.9107444083        3.7034678918       -0.0904117009
 C          0.4129127619        4.0851518611       -0.1056942676
 C          1.4283631507        3.1330236102       -0.0359192962
 C          2.8420112653        3.5211992170       -0.0728490342
 C          3.2898675819        4.5151720596       -0.9405182024
 C          4.6303080887        4.8372732318       -1.0142652001
 C          5.5691169598        4.1698597165       -0.2300539596
 C          6.9940351762        4.4718579496       -0.3630861227
 C          7.9720713852        3.5618393157       -0.3646754158
 C          7.7598339568        2.1161824053       -0.3270498334
 C          8.5408008658        1.3031433847        0.4921536861
 C          8.2808810737       -0.0470684886        0.6097093169
 C          7.2408257199       -0.6286911107       -0.1139994155
 N          6.9203129125       -1.9810095596        0.0441220101
 C          5.5770098683       -2.3684090815        0.0627785211
 C          5.1833973536       -3.5912829398       -0.4811871889
 C          3.8552492421       -3.9698410897       -0.4565582433
 C          2.8973966880       -3.1382551806        0.1002109247
 C          3.2816453947       -1.9203803186        0.6373428183
 C          4.6078287393       -1.5354961176        0.6243472655
 C          7.9358889176       -2.9252207320        0.2219127151
 C          9.1416819471       -2.7979052088       -0.4680022477
 C         10.1479471166       -3.7267605310       -0.2888786296
 C          9.9694788911       -4.7982425762        0.5709639349
 C          8.7733425426       -4.9305371047        1.2572585213
 C          7.7640636901       -4.0023798869        1.0913480480
 C          6.5089376908        0.1663666560       -0.9980681806
 C          6.7639376587        1.5147590137       -1.0988713363
 C          5.1119095782        3.2175047835        0.6822143113
 C          3.7748517397        2.8934109115        0.7526838121
 C          1.0665951184        1.7884243952        0.0510302746
 C         -0.2571064738        1.4068298591        0.0602315705
 H         -3.3464498425        2.8688555032       -0.1608688303
 H         -2.5703828187       -0.0495149936        0.2966756448
 H         -4.2864652703       -1.5608514875        0.7013498363
 H         -6.6430639805       -2.2121389835        0.6689960440
 H         -7.5573713607       -2.1005371783       -1.8990247749
 H         -8.2024945872       -4.3747784784       -2.5736156003
 H        -10.0805800796       -5.5190673141       -1.4496526136
 H        -11.3031110490       -4.3690943332        0.3623587305
 H        -10.6482126556       -2.1018201335        1.0515447029
 H         -8.5434613654        1.1466440746        1.9489353974
 H        -10.2849126648        2.7736314836        2.5529119966
 H        -12.4252230947        2.8181837419        1.3213435489
 H        -12.8048362216        1.2234201035       -0.5260088143
 H        -11.0582117140       -0.3925837553       -1.1438851187
 H         -7.7077672821        1.7317812029       -0.5871410113
 H         -5.3648162764        2.3867971999       -0.5446002545
 H         -1.6827528625        4.4590249857       -0.1398762355
 H          0.6686189232        5.1338678683       -0.1540403898
 H          2.5826093589        5.0173778498       -1.5847721751
 H          4.9631755407        5.5946778805       -1.7103104747
 H          7.2442920835        5.5202718444       -0.4685729221
 H          9.0038307702        3.8898124724       -0.3909771802
 H          9.3336773755        1.7452801996        1.0785213240
 H          8.8705147195       -0.6574704831        1.2779930362
 H          5.9259880993       -4.2384594550       -0.9244226866
 H          3.5651990107       -4.9185835851       -0.8835659337
 H          1.8603807340       -3.4371482765        0.1158279475
 H          2.5425377589       -1.2697135365        1.0823943673
 H          4.9039661711       -0.5886339481        1.0512485301
 H          9.2790684779       -1.9679980474       -1.1456649417
 H         11.0752571031       -3.6174912386       -0.8318034855
 H         10.7565765258       -5.5242531132        0.7056349656
 H          8.6274824468       -5.7586702366        1.9351008160
 H          6.8369544113       -4.1019143249        1.6366335970
 H          5.7307436368       -0.2851902285       -1.5955335476
 H          6.1900032530        2.1165766735       -1.7867544198
 H          5.8182649836        2.7331170998        1.3396372580
 H          3.4390479511        2.1565918564        1.4680805318
 H          1.8413327479        1.0354917631        0.0802000145
 H         -0.4989913423        0.3561379577        0.1102230482
