94
 energy: -137.541411957327 gnorm: 0.000033864101 xtb: 6.7.1 (edcfbbe)
C           -4.98821087648317        0.73264903708690       -0.11316403317678
C           -5.85942805820769       -0.31039720672340        0.10369485598895
C           -7.27674548432554       -0.24846004071149        0.07168310584123
C           -8.02587121536344       -1.41508105904366        0.34961557041098
C           -9.39546880193526       -1.41888398787567        0.33336635725864
C          -10.10846407873003       -0.24677966984045        0.03966984462105
N          -11.49963645046291       -0.24325552625929        0.02276447871115
C          -12.20683675592928        0.89005867218938        0.44323137898445
C          -13.36937518122654        1.28347143530702       -0.22117528192071
C          -14.06582962018869        2.39987833262745        0.19945438557351
C          -13.61563416546191        3.14211536479591        1.28009047813845
C          -12.46078454441684        2.75606773946712        1.94242976391543
C          -11.75989315765645        1.63821707730861        1.53331651109701
C          -12.20210589198177       -1.37147851483724       -0.41840948892493
C          -11.72869323353908       -2.12286817092670       -1.49506883133755
C          -12.42545154175014       -3.23544413396278       -1.92501735682633
C          -13.60215592126702       -3.61298701160973       -1.29714682402047
C          -14.07848177158558       -2.86761210758496       -0.22996403031376
C          -13.38650220374791       -1.75646717645253        0.21143001959342
C           -9.38314394841440        0.92134676389689       -0.23851438906975
C           -8.01292260234551        0.92029236006037       -0.22557485824079
C           -3.57830178083931        0.67571942755725       -0.08309999249471
C           -2.82563329116733        1.85528679628004       -0.32085970482767
C           -1.46323333271057        1.86336814889846       -0.29372213209782
C           -0.71465824042583        0.68438450060981       -0.04901163729216
C            0.71532369791435        0.68628243655631       -0.02945846182707
C            1.46047272619414        1.86750898406892        0.21489007801610
C            2.82276106842165        1.86229108262675        0.24762621822763
C            3.57881159977313        0.68360943351148        0.01633519411922
C            4.98836611223588        0.74255221800817        0.05703271635048
C            5.86255126320531       -0.30012266892346       -0.14936777235050
C            7.27938657897851       -0.23751692620890       -0.10178023507468
C            8.03170363980787       -1.40508373772209       -0.36680892271286
C            9.40090656077706       -1.40927232317112       -0.33187701709057
C           10.11030656716837       -0.23661733279440       -0.03174708196546
N           11.50111314670898       -0.23496642676041        0.00654362643404
C           12.21691482597832        0.89476474564324       -0.40840248323516
C           13.37167478849231        1.28735910832426        0.26995466658822
C           14.07666585839297        2.40041273476649       -0.14530136695581
C           13.64283717584034        3.14011220169369       -1.23434618379718
C           12.49573624209361        2.75490987103074       -1.91050788958519
C           11.78646654365203        1.64034520412494       -1.50689691720420
C           12.19336463909738       -1.36323077913659        0.46352350379294
C           11.70026245633331       -2.10823837939694        1.53580276146459
C           12.38514249951524       -3.22237918433812        1.98043427789646
C           13.56944655975371       -3.60767544304311        1.37182534136493
C           14.06572292807599       -2.86812847984030        0.30970079800037
C           13.38571008656280       -1.75550027314433       -0.14638834686434
C            9.38196270444714        0.93299762774365        0.23169333077227
C            8.01198543615634        0.93227647563240        0.20025885605820
C            2.83328830749163       -0.49497317502410       -0.24268611372942
C            1.47014787557992       -0.49275960347907       -0.25290302040432
C           -1.46609326028073       -0.49621891167628        0.17757137209114
C           -2.82926048422014       -0.50124965891045        0.17301861676662
H           -5.40222362826935        1.70951892478469       -0.32810128985507
H           -5.44778952123852       -1.28561578517794        0.32691670995667
H           -7.49628989358495       -2.32578659244709        0.59232943764247
H           -9.93910569901080       -2.32401426316409        0.56339480108203
H          -13.71567944514570        0.71181422422080       -1.06981499206603
H          -14.96191973852661        2.69686950448394       -0.32552051195664
H          -14.16115293432792        4.01542012327037        1.60433466346757
H          -12.10683854507576        3.32505029340395        2.78963574592974
H          -10.86675587837710        1.33101949031136        2.05747522947155
H          -10.81820823743111       -1.82197976040509       -1.99246913105032
H          -12.05086907515931       -3.80695966345563       -2.76156479016665
H          -14.14440674690044       -4.48208542888145       -1.63775536878584
H          -14.99185579510000       -3.15805222582503        0.26821968193273
H          -13.75355373312775       -1.18228400608897        1.04956991915746
H           -9.91978266946357        1.82715658018359       -0.48257695579676
H           -7.49067030075971        1.83419355065324       -0.46186626538535
H           -3.36066487286153        2.77157657826915       -0.53394392648630
H           -0.94202096829364        2.78507066709902       -0.50660638602358
H            0.93653422825177        2.78859008505695        0.42369356414295
H            3.35504669178294        2.78009768672139        0.46105523578686
H            5.39941671817447        1.72036379924398        0.27336174285443
H            5.45389200092027       -1.27621947473733       -0.37423765090509
H            7.50509579405599       -2.31638059265946       -0.61370587758234
H            9.94729908022616       -2.31529383738040       -0.55160110991904
H           13.70512451574552        0.71781294882122        1.12515117604707
H           14.96659555864566        2.69679504153513        0.39040436483375
H           14.19503405589991        4.01079550537264       -1.55433926498581
H           12.15458996134765        3.32193667209785       -2.76427043679589
H           10.89949037836494        1.33368502137881       -2.04180568631065
H           10.78346401346363       -1.80133004491610        2.01778437873664
H           11.99507497918767       -3.78916703903629        2.81310377749015
H           14.10214325366927       -4.47829972970321        1.72342681761570
H           14.98528756821145       -3.16460578612836       -0.17330884478564
H           13.76815349956268       -1.18607564599089       -0.98087209881396
H            9.91561399415983        1.83955938392166        0.47947636942889
H            7.48686871707779        1.84724571860116        0.42584734131217
H            3.35650692688217       -1.41816273478483       -0.44259980688215
H            0.95180146802162       -1.41271269462981       -0.48039858671010
H           -0.94495115921233       -1.41493856218005        0.40362531261602
H           -3.34970949452482       -1.42539441686418        0.37571483139536
