94
 energy: -137.533867123177 gnorm: 0.000058845523 xtb: 6.7.1 (edcfbbe)
C           -3.16270235168052        2.21162361991269       -0.00432474232543
C           -3.75918174282566        0.99067546224580        0.15964343241025
C           -5.15493850368901        0.70791543362490        0.10859976857808
C           -5.59343451942147       -0.61750710970897        0.31108625714625
C           -6.92128212589764       -0.95680309800729        0.26706435748522
C           -7.89661077281792        0.01799013121073        0.01846011731533
N           -9.24655630936048       -0.32197203928608       -0.03224980578727
C           -9.63878706657346       -1.56016292851841       -0.55630945596582
C           -8.98297154591942       -2.09842163759765       -1.66434730288009
C           -9.36968682586745       -3.32296350268984       -2.17356756994036
C          -10.41570236739467       -4.02511653783521       -1.59562906681744
C          -11.07372952048566       -3.49216289295501       -0.49835000320206
C          -10.69056908201442       -2.27133589637954        0.02257810519463
C          -10.21689610785179        0.56912647591337        0.44187329941572
C           -9.97546141444123        1.33758731355617        1.58146543523005
C          -10.93519918268690        2.21795848356391        2.04218829340269
C          -12.14834292095670        2.34210902309220        1.38339093989747
C          -12.39508869752452        1.57700402518744        0.25432360054250
C          -11.43949893385124        0.69849548156591       -0.21836522370032
C           -7.48004571459097        1.34093537116127       -0.18091074134162
C           -6.14994290789823        1.67508097350513       -0.13852272334838
C           -1.77136162140077        2.48212050855970        0.03359090181711
C           -1.30998068150599        3.80617250881107       -0.16371408263922
C            0.01853377765120        4.11915978798904       -0.15988389299705
C            1.01330144907781        3.13589305692794        0.05868367625194
C            2.41081468530803        3.44313332566397        0.05090840471635
C            2.92893743491040        4.59554430996513       -0.59435321226550
C            4.26718153001537        4.84775802506683       -0.64979007524705
C            5.22175300647227        3.95925196674382       -0.08629928120298
C            6.59920209674582        4.22624167218300       -0.20496455118372
C            7.67087538360719        3.37434536688017        0.02117027537732
C            7.69165203967507        1.95811905518965       -0.01199908947199
C            8.75888217896484        1.24813345870088        0.58709740893904
C            8.79634630404971       -0.12116076804655        0.59889988536864
C            7.78167390984033       -0.86974562796551       -0.01904713462191
N            7.78953426967848       -2.25948479177279        0.02089089518506
C            6.58102939121944       -2.96362263226517        0.08906651868851
C            6.42443938310764       -4.16757126648810       -0.59945590679986
C            5.23106948105727       -4.85959092249579       -0.52669887019279
C            4.17594008737372       -4.36335394339782        0.22278559789638
C            4.32576987967498       -3.16701960392631        0.90686465973509
C            5.51725152737292       -2.47101733372957        0.84700136865474
C            9.00057476212415       -2.96183514176174       -0.00807045579036
C           10.05241439299484       -2.52311156818943       -0.81352170537691
C           11.24514256101009       -3.21965301804681       -0.83760117305396
C           11.40723499807835       -4.36120104995411       -0.06818227545675
C           10.36420094352048       -4.80235315072447        0.73123100411692
C            9.16938707570768       -4.11014816538348        0.76694608997283
C            6.75887277632547       -0.18012456368648       -0.68979121366107
C            6.71702398661869        1.18720620577908       -0.69139422805342
C            4.69583344318924        2.85796607814320        0.64412159979018
C            3.35843152953519        2.61085788221165        0.69920606502558
C            0.55001187177880        1.81454478520061        0.27108253851584
C           -0.77724806916362        1.49909714845621        0.25159786678744
H           -3.79125245172942        3.07395500202019       -0.18687287688094
H           -3.12973184642488        0.13059378911819        0.34538453744007
H           -4.85834866143679       -1.38350840961662        0.51551377966775
H           -7.22642945216791       -1.97944431433510        0.43659115714838
H           -8.17493608241424       -1.54680002121417       -2.12250819301336
H           -8.85576574948559       -3.72762575300945       -3.03329697255064
H          -10.71600266701265       -4.98097909077765       -1.99764399241149
H          -11.88664250955298       -4.03504757634710       -0.03863299353688
H          -11.19760685646735       -1.86212371605528        0.88429901734973
H           -9.03510798240822        1.23305933302153        2.10275973275409
H          -10.73720077073004        2.80493166470032        2.92722463615604
H          -12.89659987885006        3.02962466160376        1.74796120724107
H          -13.33595322919318        1.67094310079390       -0.26799912140555
H          -11.62959122159589        0.11071524617388       -1.10462001196979
H           -8.22105072049610        2.10074800936549       -0.38497559587148
H           -5.86642922558619        2.70163684304977       -0.31149598312691
H           -2.04122040498283        4.58898933280988       -0.31832991207804
H            0.31254954400681        5.14997523732804       -0.29249177515468
H            2.24969842032448        5.27132369146761       -1.09262533172040
H            4.62725656866322        5.72249333175477       -1.17516286108729
H            6.85231193708944        5.24990561287902       -0.46358390190110
H            8.62962925950485        3.84827997879549        0.20224738834385
H            9.53778286768564        1.80683675388340        1.08659850714063
H            9.59891743090231       -0.63755394542790        1.10568194825761
H            7.24089921971269       -4.54972077352182       -1.19456426771728
H            5.12137370159288       -5.78864157001948       -1.06663658668102
H            3.24359603385556       -4.90517141731626        0.27401991096480
H            3.51108608947011       -2.77646094781084        1.49899307339338
H            5.63625246253519       -1.54557977685913        1.39112448816265
H            9.92131468711251       -1.64096393298448       -1.42312120359279
H           12.05065429197272       -2.87334612018764       -1.46844289391823
H           12.34001946057028       -4.90411187505530       -0.09204295884578
H           10.48431517824452       -5.68802835692921        1.33774561515969
H            8.36075028224873       -4.44831201470608        1.39826297792832
H            6.00870281494193       -0.74395007405006       -1.22562771103223
H            5.94559683906689        1.69515004166653       -1.24916002117391
H            5.37951741708956        2.23275478860106        1.19861491045565
H            3.00730376199943        1.78309489660907        1.29753235210487
H            1.26972811785045        1.02117812014331        0.40946129444671
H           -1.07142602382513        0.47041101364732        0.39671211413822
