94
 energy: -137.603770613070 gnorm: 0.000062081908 xtb: 6.7.1 (edcfbbe)
C           -2.85401003773553        2.19975689167728       -0.15512261134019
C           -3.39381597004240        0.98906912385640        0.06092358438310
C           -4.79929458984193        0.64606909922835        0.04054811038535
C           -5.17948869447446       -0.65837241757260        0.37982409520223
C           -6.49861797913191       -1.05078256591558        0.37870767265902
C           -7.50421943091003       -0.14831625643208        0.02526583292277
N           -8.84330694499663       -0.54240079849711        0.01245717205209
C           -9.18786013081998       -1.84225503016437       -0.38257861367462
C           -8.51291250897881       -2.46494563058945       -1.43269794029844
C           -8.85354738494268       -3.74782027217439       -1.81627545710333
C           -9.87438183901139       -4.42626160722621       -1.16991444890729
C          -10.55157624091276       -3.81040713878005       -0.12959767236635
C          -10.21206339474864       -2.53109706940295        0.26713175824388
C           -9.84725757927107        0.35600001102440        0.39651137431948
C           -9.63674214543518        1.24676027482325        1.44925670515538
C          -10.63116207367128        2.13003496935246        1.82346514942886
C          -11.85037945789206        2.13520368332147        1.16497392571745
C          -12.06621985721062        1.24961621907007        0.12127676616327
C          -11.07478487020061        0.36865913732681       -0.26601838148766
C           -7.13746081071446        1.15523460135624       -0.31964216644663
C           -5.81608786399483        1.54175823460094       -0.30884935657775
C           -1.44048322390337        2.51871778033438       -0.13529974040373
C           -1.04157402949339        3.85593351822176       -0.24453120322698
C            0.29023342826937        4.21317722600292       -0.23501578708244
C            1.28594772740632        3.24544036485183       -0.11087645613994
C            2.71107008936630        3.59550819905162       -0.10750240530884
C            3.22483400506177        4.54903792447292       -0.98438948096818
C            4.57817909162609        4.82218826060219       -1.01684859486782
C            5.46611388787082        4.14120339125249       -0.18475463834345
C            6.90234076043370        4.40380811256552       -0.26241106525833
C            7.87356462568360        3.48736735430411       -0.19518937617111
C            7.69421720255985        2.03863907066246       -0.14675311079152
C            8.53801285435809        1.25231984091995        0.63865977213303
C            8.36782953872884       -0.11416756993757        0.72361667108359
C            7.35700937236348       -0.74568723767569       -0.00141045382502
N            7.15965922221551       -2.12783135308734        0.09232232924803
C            5.85686322700137       -2.64203425130151        0.09306797073138
C            5.56567071523409       -3.83874271249006       -0.56214671302264
C            4.27941653086886       -4.34331566446332       -0.55245287001211
C            3.26334633321271       -3.66458975730778        0.10088467358334
C            3.54616572008031       -2.47361863478066        0.75022019313897
C            4.83023990138856       -1.96402958965510        0.75123736865093
C            8.25661808505659       -2.99080033346794        0.19190026386408
C            9.43223248369158       -2.72451901570799       -0.51073223239995
C           10.51445075286474       -3.57698849095799       -0.40674189228995
C           10.44343208353076       -4.70894783016522        0.38935823498115
C            9.27680830603089       -4.98075503993247        1.08595152108656
C            8.19235687119212       -4.12969102812314        0.99540135727676
C            6.54278577380189        0.02918513716705       -0.83007282746655
C            6.70958652217634        1.39438821305445       -0.89882613890199
C            4.94320815486724        3.22881983917579        0.73292459322781
C            3.59277380290125        2.95756790726818        0.76621563852155
C            0.89498747117827        1.90985360401347       -0.00555297155098
C           -0.43505532468053        1.55285027563290       -0.02051851979124
H           -3.50117073395278        3.04420192796914       -0.35348160620761
H           -2.74149077344774        0.15548029009648        0.28654822486180
H           -4.41840768801588       -1.37298623625130        0.66100420631325
H           -6.76406834381940       -2.06089646843358        0.65556126313120
H           -7.72331650302486       -1.93465249761561       -1.94509636564716
H           -8.32346345842346       -4.21710309379915       -2.63242977353096
H          -10.13995527386808       -5.42743493038403       -1.47466676055692
H          -11.34567491358805       -4.33317760409518        0.38364451583230
H          -10.73622798633271       -2.05724717069849        1.08444110564723
H           -8.69138950337834        1.23765993705854        1.97217483740918
H          -10.45526577933618        2.81261916338354        2.64228018381741
H          -12.62673766170462        2.82376214978922        1.46313715377833
H          -13.01156686166089        1.24948096805884       -0.40179636606081
H          -11.24326025985493       -0.31506990771993       -1.08543479356765
H           -7.90384824313534        1.86144876928848       -0.60523510440389
H           -5.56920907975073        2.55320969736038       -0.59267628397782
H           -1.79700556718311        4.62490963921009       -0.33365252939767
H            0.56612948694512        5.25593465389981       -0.30444716209638
H            2.55960430089172        5.05929167265431       -1.66638533549976
H            4.96182072071658        5.55008488564224       -1.71866382235599
H            7.17585993495177        5.44567682843322       -0.38118713605859
H            8.90398087445463        3.82305705193191       -0.18022354336399
H            9.31902065561478        1.72628137777569        1.21663798307257
H            9.01474840856603       -0.70265895214242        1.35825173352300
H            6.35395698098482       -4.36684698981599       -1.07891120444494
H            4.06777541525217       -5.27008848819976       -1.06594994214828
H            2.25904961670127       -4.06108053246683        0.10460409966805
H            2.76201086132149       -1.94320959299835        1.27089155860249
H            5.04945250045433       -1.03930477628466        1.26493054179175
H            9.48739633950847       -1.84804196381668       -1.14010865017126
H           11.41745378943574       -3.35956154773208       -0.95876023262022
H           11.28986190937104       -5.37490582309711        0.46514980618170
H            9.21315954599813       -5.85818980005054        1.71329251771065
H            7.28807449938479       -4.33944773824482        1.54816720125408
H            5.77763841685703       -0.45249950802037       -1.42168751365277
H            6.07976866133876        1.97342969496258       -1.55716778670271
H            5.60929032021861        2.73256141205905        1.42336337153194
H            3.20654194720822        2.25330958222925        1.48907540569705
H            1.65302028631362        1.14259727776886        0.06144688750068
H           -0.69513353902683        0.50743633950876        0.04532999516653
