  32
  -55.1358013044000        1.00000000000000      !
 C          5.0246728351       -0.6934570127       -0.0247669026
 C          5.0247984007        0.6933748961        0.0004026842
 C          3.8309816768        1.3923473447        0.0197492760
 C          2.6092588214        0.7248206539        0.0139855377
 N          1.4381250159        1.3566965133        0.0220569069
 C          0.2816440568        0.7170209235        0.0128796702
 C         -0.9597525630        1.4126478501        0.0061578935
 C         -1.0017311515        2.8177662199        0.0028869811
 C         -2.2157020565        3.4548098987       -0.0092554843
 C         -3.3797349069        2.6715078317       -0.0161655074
 N         -3.3652983044        1.3654549387       -0.0128362108
 C         -2.1986221572        0.7195799679       -0.0023577891
 C         -2.1987025387       -0.7194423061        0.0002752200
 N         -3.3654726136       -1.3652162466       -0.0036417147
 C         -3.3800484155       -2.6712389056       -0.0003315632
 C         -2.2160456042       -3.4546647375        0.0088720120
 C         -1.0020177043       -2.8177650385        0.0109757402
 C         -0.9599010898       -1.4126435201        0.0056657819
 C          0.2815567612       -0.7171572792        0.0054306180
 N          1.4380189756       -1.3569289473       -0.0034880406
 C          2.6091577044       -0.7250371634       -0.0056430722
 C          3.8307605684       -1.3925043575       -0.0266036638
 H          5.9582404228       -1.2343682148       -0.0435469138
 H          5.9584906833        1.2343677318        0.0044620794
 H          3.8171636637        2.4709740021        0.0375189359
 H         -0.0653861464        3.3570836472        0.0082007318
 H         -2.2847588343        4.5311308608       -0.0149938474
 H         -4.3583434214        3.1326788537       -0.0294192133
 H         -4.3587614611       -3.1324599570       -0.0037522250
 H         -2.2853868674       -4.5309710377        0.0137327560
 H         -0.0656839022       -3.3570464667        0.0189396674
 H          3.8167393623       -2.4710624859       -0.0459066328
