  51
        -83.58505443
 C          1.1771984134        4.1275893510        0.0260305403
 C          0.6332214093        3.6089669920        1.1903528434
 C         -0.0206072251        2.3914827533        1.1698679586
 C         -0.1309853782        1.6914827143       -0.0268268768
 N         -0.7763130774        0.4377747700       -0.0523747355
 C         -0.1162835142       -0.7959804829       -0.0826591052
 C          1.2514243434       -1.0007843702       -0.0834762244
 C          1.8591994665       -2.2903092001       -0.1015900178
 C          3.2141526540       -2.2621662162       -0.0656791590
 C          3.7632424308       -0.9506080300       -0.0172811354
 C          5.0906891184       -0.5799308670        0.0295124824
 C          5.6353223788        0.7149560225        0.0787772260
 C          7.0208521148        0.7211504637        0.1202721477
 C          7.5740196138       -0.5367744442        0.1040851769
 S          6.3843634700       -1.7790873226        0.0369717285
 S          2.4763882444        0.2591079158       -0.0253280141
 N         -0.9986768109       -1.8106616902       -0.0768076792
 C         -2.2075039736       -1.2512730713       -0.0342608500
 C         -3.4729534840       -1.9065671261        0.0022585478
 C         -3.5555178368       -3.3017144244        0.0019220790
 C         -4.7790979520       -3.9257771643        0.0492701710
 C         -5.9355711856       -3.1528597828        0.1015538046
 C         -5.8652052170       -1.7771906729        0.1006285512
 C         -4.6365018344       -1.1040244501        0.0468530495
 C         -4.5324225996        0.3457507995        0.0242154375
 C         -5.6657825650        1.1660985643        0.0295133199
 C         -5.5760706026        2.5394304613       -0.0156102244
 C         -4.3297349743        3.1589261726       -0.0764818024
 C         -3.1912589675        2.3947290338       -0.0776084475
 C         -3.2589771591        0.9902839251       -0.0192650549
 C         -2.1146743406        0.1618278058       -0.0200711032
 C          0.4137406271        2.2100469902       -1.1966146083
 C          1.0659432882        3.4291858496       -1.1641045459
 H          1.6896422218        5.0775022029        0.0479735673
 H          0.7225103621        4.1521414223        2.1189928288
 H         -0.4482526125        1.9756012635        2.0702617360
 H          1.2438056893       -3.1693536871       -0.1393499205
 H          3.8556140024       -3.1254806750       -0.0713506694
 H          5.0095387178        1.5889594927        0.0831027521
 H          7.6164669595        1.6161462605        0.1616348282
 H          8.6105913684       -0.8054286393        0.1286659674
 H         -2.6331707721       -3.8601864444       -0.0344084554
 H         -4.8469217595       -5.0032795278        0.0485013097
 H         -6.9010771711       -3.6356850724        0.1430544829
 H         -6.7892514275       -1.2226524273        0.1426923592
 H         -6.6483631214        0.7240357072        0.0653501349
 H         -6.4751384639        3.1373473586       -0.0092750976
 H         -4.2603257947        4.2354589417       -0.1238305852
 H         -2.2268190772        2.8737972669       -0.1337555457
 H          0.3230514845        1.6537397175       -2.1174459357
 H          1.4902890747        3.8319366714       -2.0712205227
  51
        -83.58366343
 C          1.1948877959        4.1338618890       -0.5452594895
 C          0.7207877386        3.7123119026        0.6871114559
 C          0.0637428116        2.5019764250        0.8045432231
 C         -0.1217594453        1.7099472892       -0.3238514197
 N         -0.7694491668        0.4617965672       -0.2305785008
 C         -0.1151337588       -0.7659839734       -0.3889795320
 C          1.2530989171       -0.9638682756       -0.4214861652
 C          1.8686977257       -2.2457112353       -0.5235619936
 C          3.2136020123       -2.2254873574       -0.3528743823
 C          3.7442128161       -0.9294922675       -0.1022371274
 C          5.0408736630       -0.5841552809        0.2169535911
 C          5.5563805153        0.6860620788        0.5259461912
 C          6.9054523634        0.6630690817        0.8452808756
 C          7.4593688911       -0.5931243212        0.7880376477
 S          6.3168357006       -1.7968574750        0.3320124975
 S          2.4639004408        0.2859226598       -0.1666571811
 N         -0.9944987608       -1.7826571970       -0.3905008919
 C         -2.1936277660       -1.2332818127       -0.2007015237
 C         -3.4475610308       -1.9015850426       -0.0879771386
 C         -3.5314807186       -3.2901494156       -0.2221922990
 C         -4.7430037360       -3.9279484514       -0.1020824388
 C         -5.8851537470       -3.1758516018        0.1573695998
 C         -5.8130327519       -1.8067486395        0.2909550709
 C         -4.5964956903       -1.1199567358        0.1722283573
 C         -4.4911238921        0.3248960941        0.2909869350
 C         -5.6051170014        1.1224832996        0.5743002020
 C         -5.5211209950        2.4940758104        0.6620855083
 C         -4.3036842256        3.1356981314        0.4464888280
 C         -3.1828506428        2.3928826849        0.1777912268
 C         -3.2380041771        0.9878327820        0.1180274394
 C         -2.1005880235        0.1767411567       -0.0958098241
 C          0.3583055333        2.1292706983       -1.5605156488
 C          1.0138640700        3.3419875373       -1.6661825019
 H          1.7086148969        5.0794664089       -0.6304011165
 H          0.8685880973        4.3266698811        1.5624474739
 H         -0.3064350498        2.1617883858        1.7604000212
 H          1.2650713322       -3.1159298074       -0.7010188006
 H          3.8574501863       -3.0867125526       -0.3777325441
 H          4.9357875559        1.5636560660        0.5143954617
 H          7.4738729298        1.5361744442        1.1141615579
 H          8.4723970194       -0.8806634396        0.9849219270
 H         -2.6202580211       -3.8324002064       -0.4205070598
 H         -4.8123800560       -5.0003113934       -0.2065002355
 H         -6.8411057470       -3.6698208394        0.2547180838
 H         -6.7263505956       -1.2681103277        0.4871379037
 H         -6.5665588194        0.6627506070        0.7368744872
 H         -6.4032766592        3.0736100263        0.8900851796
 H         -4.2421343155        4.2127843572        0.4921243786
 H         -2.2426914460        2.8911464930        0.0042187238
 H          0.2119042164        1.5013851158       -2.4270498492
 H          1.3838053664        3.6672014890       -2.6267931017
  51
        -83.58313800
 C          1.1718793158        4.1489034566       -0.6301523613
 C          0.7728839044        3.7068584638        0.6213197393
 C          0.1266849034        2.4926232423        0.7585656405
 C         -0.1226283176        1.7175900725       -0.3690708268
 N         -0.7629716651        0.4661102247       -0.2580999277
 C         -0.1104590897       -0.7588904680       -0.4403667101
 C          1.2578291329       -0.9526609725       -0.4902361603
 C          1.8773304686       -2.2300408716       -0.6206153565
 C          3.2199192446       -2.2117924371       -0.4329742864
 C          3.7437583646       -0.9223659491       -0.1363619295
 C          5.0271332206       -0.5891751280        0.2426486156
 C          5.5298924628        0.6691932981        0.6153196360
 C          6.8617773369        0.6313801894        0.9984003830
 C          7.4157239291       -0.6241469925        0.9270919154
 S          6.2944809397       -1.8090260651        0.3782520950
 S          2.4640567855        0.2943673855       -0.2005656602
 N         -0.9885521897       -1.7763128722       -0.4411633331
 C         -2.1851914812       -1.2303372927       -0.2255240809
 C         -3.4361155893       -1.9008387546       -0.0948198042
 C         -3.5200869230       -3.2890565412       -0.2328889408
 C         -4.7279587484       -3.9295467903       -0.0924363720
 C         -5.8665373504       -3.1803902680        0.1905794851
 C         -5.7943200507       -1.8117199246        0.3283791615
 C         -4.5812063087       -1.1222916290        0.1909183242
 C         -4.4750020372        0.3214650369        0.3214273650
 C         -5.5846466480        1.1159878648        0.6295332167
 C         -5.4976561634        2.4859521231        0.7373068914
 C         -4.2813403113        3.1294325558        0.5206853823
 C         -3.1651503361        2.3897627998        0.2254285597
 C         -3.2243036886        0.9863217548        0.1396378809
 C         -2.0914636755        0.1782473177       -0.1065054915
 C          0.2831540881        2.1566513651       -1.6248925631
 C          0.9276718071        3.3733931580       -1.7505482343
 H          1.6757436888        5.0982497615       -0.7312077983
 H          0.9683778683        4.3095200986        1.4954178761
 H         -0.1872192241        2.1372501189        1.7288188369
 H          1.2778067846       -3.0965580377       -0.8277500806
 H          3.8659849817       -3.0708289143       -0.4717180856
 H          4.9119176612        1.5486155493        0.6028067516
 H          7.4177627497        1.4932424946        1.3235423638
 H          8.4173042549       -0.9212965513        1.1640701580
 H         -2.6115170466       -3.8288591934       -0.4493660509
 H         -4.7972005169       -5.0017514468       -0.1986410901
 H         -6.8198263448       -3.6763785107        0.3027454685
 H         -6.7047908449       -1.2754393949        0.5435191721
 H         -6.5452760816        0.6552230249        0.7940848328
 H         -6.3765316923        3.0630149394        0.9835308235
 H         -4.2167632849        4.2051952151        0.5878660088
 H         -2.2253028760        2.8889207100        0.0524511903
 H          0.0884615801        1.5408652046       -2.4906784571
 H          1.2385187403        3.7150454399       -2.7262970536
