  49
        -80.81294593
 C          5.7564772332        1.2990501634        0.7616498695
 C          5.2284225615        0.0501801679        0.0506873029
 C          5.5774963188       -1.1951045213        0.8624469690
 C          5.8156399465       -0.0708610607       -1.3582186960
 N          3.7611167777        0.1521946740       -0.0561894470
 C          3.1392172951        1.1593603115       -0.7334477676
 O          3.6864233604        2.0609306211       -1.3315030365
 C          1.6668014143        1.0016555473       -0.6416850841
 C          0.7262359730        1.8325639081       -1.2377070732
 C         -0.6159153660        1.5486572291       -1.0721795175
 C         -1.0338879667        0.4518732706       -0.3096101144
 N         -2.3862124978        0.1744415432       -0.1609040032
 C         -3.3796523832        1.0910719916        0.1525834739
 C         -3.2765637486        2.4412325695        0.4505110981
 C         -4.4366731484        3.1217058246        0.7721262193
 C         -5.6708319798        2.4786466314        0.8090827952
 C         -5.7744056278        1.1274988375        0.5430700411
 C         -4.6225640651        0.4243326830        0.2179672127
 C         -4.3653750094       -0.9587960942       -0.0795287615
 C         -5.1843111441       -2.0742797256       -0.1908310613
 C         -4.6100955470       -3.2838492890       -0.5285236380
 C         -3.2428600752       -3.3830272146       -0.7717694315
 C         -2.4081016658       -2.2854357755       -0.6671400387
 C         -2.9755669830       -1.0750785251       -0.2986735821
 C         -0.0805205242       -0.3755612926        0.3010261903
 C          1.2448428296       -0.0789835071        0.1118398574
 S          2.6882008676       -0.9233673654        0.7200752498
 O          2.8102456753       -0.8017869647        2.1390682276
 O          2.7974636693       -2.2291359273        0.1487580429
 H          5.5220273559        2.1888960713        0.1842526945
 H          5.3022218186        1.3850017917        1.7463423014
 H          6.8347603950        1.2275775644        0.8753212009
 H          5.1865244648       -2.0884345711        0.3832003659
 H          5.1599796763       -1.1313380382        1.8634504196
 H          6.6589556589       -1.2804028711        0.9375491319
 H          5.4029939797       -0.9437090532       -1.8594392140
 H          5.5835437506        0.8153067055       -1.9420304651
 H          6.8950662138       -0.1779429509       -1.2952793208
 H          1.0564870194        2.6715591755       -1.8300767788
 H         -1.3610439238        2.1612324258       -1.5563910887
 H         -2.3235733009        2.9476960608        0.4507900687
 H         -4.3817125834        4.1744657458        1.0053485934
 H         -6.5541616864        3.0450915038        1.0627310484
 H         -6.7268938210        0.6225143288        0.5929575668
 H         -6.2469255328       -1.9910305348       -0.0215322440
 H         -5.2275102867       -4.1649901935       -0.6169953690
 H         -2.8231069034       -4.3371986545       -1.0524063395
 H         -1.3537855931       -2.3747696509       -0.8802453365
 H         -0.3796411711       -1.2070756632        0.9183157035
