78
 energy: -136.880573612756 gnorm: 0.000071530710 xtb: 6.7.1 (edcfbbe)
F           -1.26347943372994        9.32878699730271       -0.48212300793546
C           -0.66018220289924        8.14546791166271       -0.24951902704269
C           -1.32738349123714        6.97768544270297       -0.48908880971408
C           -0.67460571296174        5.75714375032106       -0.22976001975739
N           -1.34195359694461        4.59584888265855       -0.35796015611222
C           -0.70787603807246        3.46908130764624       -0.13167336723228
C           -1.50818720879311        2.24302511292811       -0.13623733673910
C           -1.27084301272869        1.21866750835018        0.78207095110084
C           -2.02145119359169        0.06278207460358        0.74537383146235
C           -3.02427415973865       -0.09556613342155       -0.20964838708898
N           -3.75833073911265       -1.29795118526572       -0.26829853512274
C           -5.13503158729682       -1.30891013505415       -0.02891319471126
C           -5.83410705649861       -0.16446579117810        0.33543917443754
C           -7.19911952687470       -0.21173315590997        0.57524295060987
C           -7.88670555468383       -1.40394776517680        0.46714147553518
C           -7.19835744279426       -2.56127367838800        0.13267237926369
C           -5.83717585858850       -2.51929037856031       -0.10639171326488
O           -5.22073717640639       -3.71311427097077       -0.40207760527350
C           -3.86726165662890       -3.68288596483248       -0.64569032424839
C           -3.26317952858252       -4.88412569553948       -0.96888035831840
C           -1.90704163942780       -4.93073687805285       -1.25836748061245
C           -1.16716185172222       -3.76568640930505       -1.23696581875361
C           -1.76769816005171       -2.55982493277127       -0.90811499389886
C           -3.11922891885302       -2.49919561219732       -0.58979648644875
C           -3.29126905891440        0.94064195446015       -1.10195367039458
C           -2.54632177536833        2.10107047911641       -1.05715029099063
C            0.70700775104242        3.46927071179883        0.13164160207088
C            1.50764228113978        2.24342486731352        0.13621117528382
C            2.54580261003345        2.10173571952654        1.05713566200792
C            3.29104509531222        0.94149663567315        1.10194710459851
C            3.02431708735876       -0.09478247815162        0.20964477893040
N            3.75866774473635       -1.29698846195358        0.26831820665754
C            5.13536683815932       -1.30761655854290        0.02891311375227
C            5.83414431339285       -0.16301899389074       -0.33552885819426
C            7.19916511090942       -0.20995600574206       -0.57535080441490
C            7.88705551655216       -1.40198870063020       -0.46717865609520
C            7.19900722393228       -2.55946762131065       -0.13262088974238
C            5.83781973233144       -2.51781310595679        0.10646608721052
O            5.22168919294698       -3.71176998016318        0.40225806165149
C            3.86819759524842       -3.68187699962355        0.64582427006194
C            3.26441446847097       -4.88325611101416        0.96905456406615
C            1.90828112842858       -4.93020108017006        1.25851152137880
C            1.16810350600029       -3.76534123925321        1.23703024243341
C            1.76833807196663       -2.55934276436393        0.90812987319963
C            3.11986313573210       -2.49838088640420        0.58985233948334
C            2.02146981519192        0.06331231985786       -0.74539345588546
C            1.27057209387076        1.21900947981878       -0.78210322571067
N            1.34078643743523        4.59620816104512        0.35791666782829
C            0.67313217365571        5.75732509136946        0.22969793669305
C            1.32558809871506        6.97804317990945        0.48900542411629
C            0.65808083663529        8.14564576593420        0.24941066347965
F            1.26107059576483        9.32912759817585        0.48198405904472
H           -2.34099511823745        6.98055274396119       -0.85544502699684
H           -0.51363570805495        1.33969501599418        1.54157895669134
H           -1.84079578231135       -0.72606856516822        1.45985056904068
H           -5.30687346926330        0.77050476481072        0.44032605472928
H           -7.71679765539084        0.69378390632390        0.85216541357416
H           -8.94894937628368       -1.44667117208164        0.64948290585702
H           -7.70089390479398       -3.51285619628004        0.05732649697486
H           -3.87479460256783       -5.77241415839967       -0.99367726682463
H           -1.44359319948261       -5.87243568826882       -1.50671941900648
H           -0.11453809350707       -3.78482617826637       -1.47221385798208
H           -1.17987590507682       -1.65604247091509       -0.90352152225982
H           -4.07660581006296        0.82402364633535       -1.83371168758550
H           -2.74015361222157        2.90448481529012       -1.75063749857796
H            2.73942491629602        2.90520156322959        1.75062183835075
H            4.07640615793078        0.82507799897615        1.83371080935814
H            5.30667091573392        0.77181158690060       -0.44046101888458
H            7.71660759770260        0.69567158809767       -0.85235166811463
H            8.94930409117775       -1.44445811165617       -0.64955202956703
H            7.70178570619455       -3.51091823745158       -0.05722417967459
H            3.87625814986080       -5.77138564153148        0.99391090047691
H            1.44506384290314       -5.87201029062101        1.50687689001408
H            0.11547196431420       -3.78474161448472        1.47222099976184
H            1.18028158767059       -1.65571334234145        0.90346636022324
H            1.84102582836450       -0.72558289116361       -1.45987457107808
H            0.51334144660455        1.33984392960566       -1.54161899306683
H            2.33919916005042        6.98118502073009        0.85536090189115
