78
 energy: -136.876559514417 gnorm: 0.000053864344 xtb: 6.7.1 (edcfbbe)
F           -9.32611846895925       -1.16542549416636       -0.69129294462858
C           -8.14516877461270       -0.60917757608083       -0.36003161926211
C           -6.97579629774696       -1.22045185047122       -0.71517322176072
C           -5.75537808894129       -0.62038849241946       -0.35239869682746
N           -4.59273940761798       -1.24587120197363       -0.64268923046497
C           -3.48078834624001       -0.65568462192825       -0.30214098819767
C           -2.17042019451571       -1.30500534908911       -0.48386878723836
C           -1.42601509808859       -1.61851147845882        0.65203981293360
C           -0.11649863291183       -2.03246077352284        0.53846951192624
C            0.48530543500507       -2.10731695243652       -0.71537378029047
N            1.86939624445221       -2.36847946254064       -0.81991743811885
C            2.41826509043767       -3.52267860785216       -0.25505457918461
C            1.62501288970955       -4.58126584814091        0.17089490532354
C            2.19483420846659       -5.72123002599408        0.71766582978802
C            3.56624384696315       -5.82689000631072        0.83706828583085
C            4.37350289946336       -4.79199695787776        0.38665269131179
C            3.80952966030795       -3.65497501089162       -0.16216593606789
O            4.67429693246260       -2.68796041597988       -0.61832910565341
C            4.12150552368209       -1.54868121041864       -1.15035227317595
C            5.00170641392074       -0.57264620002780       -1.57946050838762
C            4.52753001355334        0.62085185063694       -2.10258616308284
C            3.16622177234310        0.83115585608747       -2.17929661124867
C            2.28015076870891       -0.14790915715594       -1.75572127117702
C            2.73725899461771       -1.35782968101250       -1.25020729811611
C           -0.28198160775244       -1.88063470479644       -1.85425339024398
C           -1.60448214978085       -1.49078079492531       -1.73921262825531
C           -3.48129373002920        0.65286877350580        0.30201645147714
C           -2.17137844823617        1.30305206361551        0.48386985945871
C           -1.60562659604843        1.48962628362640        1.73917140960678
C           -0.28336097073195        1.88033446998730        1.85412945075083
C            0.48386562645893        2.10705027832811        0.71521687677873
N            1.86779683421433        2.36905056463458        0.81976386190236
C            2.41615103891535        3.52270833705465        0.25324171795049
C            1.62243665587680        4.58041197979953       -0.17405194762267
C            2.19170862891145        5.71970267547831       -0.72278857590927
C            3.56304917863667        5.82563348301650       -0.84276619325185
C            4.37078165790546        4.79179339666031       -0.39080098702313
C            3.80734496872647        3.65543181914251        0.15993955660490
O            4.67257049257228        2.68951665708768        0.61752510887389
C            4.12031065977131        1.55023120058118        1.15007647321758
C            5.00098948908345        0.57467075306296        1.57929405813342
C            4.52740026051602       -0.61883507917060        2.10291892095924
C            3.16618786270766       -0.82963300840824        2.17999207529438
C            2.27963878163555        0.14895002079786        1.75630669940588
C            2.73615789557937        1.35888694185476        1.25028527088508
C           -0.11785046323988        2.03140710264497       -0.53863078164783
C           -1.42710290939557        1.61664563413676       -0.65210790985681
N           -4.59372922120635        1.24240551439383        0.64211686386041
C           -5.75588681793032        0.61628574250514        0.35126982122846
C           -6.97681958865553        1.21575460681545        0.71330303468777
C           -8.14567907618892        0.60392830011809        0.35742128424898
F           -9.32709908167430        1.15963576583734        0.68791134732786
H           -6.97561954834810       -2.15256643246716       -1.25641220721573
H           -1.87534018775732       -1.52088634605538        1.62918334140664
H            0.45835466981066       -2.26886779255332        1.42030797106016
H            0.55311053604844       -4.51493270044191        0.06899594505173
H            1.55473898927823       -6.52634533655496        1.04441385878761
H            4.01555351039495       -6.70892777639767        1.26562718569915
H            5.44896920072688       -4.84993229661041        0.44808919521812
H            6.05903364346866       -0.76412462244453       -1.48652289765180
H            5.22220185490882        1.37705965361358       -2.43278849468274
H            2.78333404027410        1.76210264482331       -2.57058839404060
H            1.21918359715549        0.03319744790292       -1.80817342758539
H            0.16848016780436       -1.99014152453558       -2.82935075243985
H           -2.19063941571138       -1.29421601759723       -2.62409514749309
H           -2.19168708488236        1.29298735326181        2.62410129144261
H            0.16697819678203        1.99047291502178        2.82921231722985
H            0.55059015190087        4.51392153301810       -0.07169150555781
H            1.55124853158002        6.52409626493317       -1.05059537373635
H            4.01193997617358        6.70716673102937       -1.27279914311168
H            5.44621556465309        4.85004670682812       -0.45249639402886
H            6.05821894225074        0.76652417964656        1.48601884175023
H            5.22244286666581       -1.37466177012945        2.43322069913053
H            2.78374419695441       -1.76056147947472        2.57175810960139
H            1.21875826796065       -0.03258450052523        1.80908251720007
H            0.45686703491308        2.26785965208092       -1.42054456414196
H           -1.87633313844421        1.51845392552697       -1.62923758342900
H           -6.97743337941506        2.14788431681028        1.25451561832921
