  62
       -100.67569188
 O          2.1052384742       -1.5851651382        2.4574841913
 P          2.1324654648       -1.4179450814        1.0005829191
 C          3.7450164550       -0.8938271929        0.3427179644
 C          4.2904238587        0.2435877535        0.9228951353
 C          5.5219325599        0.7065738139        0.4999024663
 C          6.2080929782        0.0269567188       -0.4952892782
 C          5.6679509805       -1.1161788854       -1.0602569103
 C          4.4307144207       -1.5811207561       -0.6460884677
 C          1.4907841272       -2.8217239099        0.0538528945
 C          1.2934726053       -2.7358760388       -1.3197174360
 C          0.7314554849       -3.8035849279       -1.9943815232
 C          0.3647528061       -4.9476049941       -1.3006843838
 C          0.5587350860       -5.0288487633        0.0688369276
 C          1.1199877530       -3.9627547951        0.7500648646
 C          0.9950366408       -0.0510874564        0.4963279917
 N          1.4829890229        1.1057860037        0.2738382694
 C          0.5613210669        2.1129037011        0.0084289778
 C          1.0109318876        3.4264044381       -0.2344212830
 C          2.3843390823        3.7377914046       -0.1582288740
 C          2.8245721560        5.0189799320       -0.3872814231
 C          1.9231575833        6.0309392535       -0.7003656094
 C          0.5676476673        5.7364305642       -0.7883978109
 C          0.1088153004        4.4608010148       -0.5634314425
 N         -0.7396209241        1.7458768335       -0.0446828077
 C         -1.1390277065        0.5347729316        0.1770492812
 N         -2.4587982696        0.2050915493        0.1054374140
 C         -2.9973131153       -1.0748283845       -0.0184769181
 C         -2.3646951790       -2.3024553126       -0.1259937066
 C         -3.1569300251       -3.4280975691       -0.2692409813
 C         -4.5446980114       -3.3410054879       -0.3131950681
 C         -5.1810276239       -2.1176540819       -0.2117502706
 C         -4.4060381773       -0.9769245106       -0.0648235949
 C         -4.7335365986        0.4197322778        0.0559513643
 C         -5.9313916053        1.1183938187        0.0781845157
 C         -5.8937569991        2.4934257585        0.2211487172
 C         -4.6831187189        3.1678835318        0.3482624688
 C         -3.4772014201        2.4891596274        0.3299364530
 C         -3.5102113160        1.1154607968        0.1656519940
 N         -0.2553247746       -0.4715955290        0.4929377730
 H          3.7368664172        0.7496227616        1.7016514027
 H          5.9487544929        1.5939593939        0.9433083407
 H          7.1693042452        0.3886867639       -0.8293715455
 H          6.2095374294       -1.6479848387       -1.8287944848
 H          4.0070874210       -2.4743076605       -1.0833987737
 H          1.5696992399       -1.8321447298       -1.8461035454
 H          0.5704335353       -3.7431790736       -3.0606331890
 H         -0.0796280301       -5.7760076925       -1.8326177662
 H          0.2672910442       -5.9193381167        0.6058627647
 H          1.2714351234       -3.9908105387        1.8192625715
 H          3.0760745503        2.9438639445        0.0800705966
 H          3.8799824773        5.2437569855       -0.3245213231
 H          2.2740954709        7.0362721218       -0.8776078690
 H         -0.1348544819        6.5193222046       -1.0382064501
 H         -0.9417476751        4.2280723026       -0.6460654071
 H         -1.2919588462       -2.3803550814       -0.0882273931
 H         -2.6809648719       -4.3939291177       -0.3505811468
 H         -5.1298909147       -4.2409586773       -0.4297117600
 H         -6.2574099792       -2.0463433401       -0.2475317118
 H         -6.8711598508        0.5954212931       -0.0123716517
 H         -6.8159499750        3.0543742031        0.2458087303
 H         -4.6838064991        4.2401120469        0.4732236171
 H         -2.5382919230        3.0059577457        0.4500027573
