  34
  -52.3192078800000        1.00000000000000      !
 C          3.8043229066       -2.2547558202        0.2573876928
 C          2.5220238683       -2.5969269155        0.6589863627
 C          1.4940510696       -1.6592134299        0.5853588196
 C          1.7229318289       -0.3762646018        0.1092682461
 C          3.0652397318        0.0194917946       -0.1843166243
 C          4.0778947053       -0.9648124693       -0.1450035507
 C          3.3827702569        1.3642960598       -0.4279075304
 C          2.4138495809        2.3793885308       -0.3352279349
 C          1.1163861442        2.0096620035       -0.1059812975
 N          0.0005393460        2.8049107430        0.0015982681
 C         -1.1159542514        2.0097462743        0.1052355510
 C         -2.4133215441        2.3796778503        0.3350123803
 C         -3.3824402308        1.3646956240        0.4277269059
 C         -3.0651568060        0.0198485385        0.1845979320
 C         -4.0779592662       -0.9644703086        0.1465904978
 C         -3.8046999800       -2.2543525797       -0.2562998734
 C         -2.5228543837       -2.5962552305       -0.6596131309
 C         -1.4947658097       -1.6587521914       -0.5866243506
 C         -1.7230167928       -0.3760321326       -0.1098120845
 C         -0.6960018196        0.6300768696        0.0089750600
 C          0.6961318450        0.6299410970       -0.0099656721
 H          4.5941329844       -2.9914064297        0.2842137970
 H          2.3121234010       -3.5910024364        1.0236008531
 H          0.5098358787       -1.9290058892        0.9336531718
 H          5.0846140944       -0.6810023919       -0.4161999940
 H          4.4090981326        1.6302748084       -0.6291365355
 H          2.6928445731        3.4157700775       -0.4464982941
 H         -0.0002314356        3.8098433036       -0.0058145895
 H         -2.6921505553        3.4160506316        0.4465491303
 H         -4.4086083130        1.6311284887        0.6292077025
 H         -5.0835170563       -0.6813205779        0.4207771541
 H         -4.5942818177       -2.9913318090       -0.2816528761
 H         -2.3135386375       -3.5901744122       -1.0252599280
 H         -0.5110365567       -1.9285820931       -0.9364337588
