71
 energy: -120.909577635654 gnorm: 0.000047610644 xtb: 6.7.1 (edcfbbe)
Cl          -1.65729175827359       -1.51190531449901       -1.91962843005779
C           -0.93567424610133       -0.98628113123502       -0.35311827198437
C            0.48270162619539       -1.30029268741807       -0.22203701043746
N            0.92046697237922       -2.59200896154143       -0.33930667210598
C            2.21351811563377       -2.98218760191915       -0.68610947387392
C            3.33407615007573       -2.21130811967449       -0.95754712934743
C            4.50644204474777       -2.86725738991113       -1.29332135111069
C            4.56777340777684       -4.25496503595842       -1.36952342098347
C            3.44949576183916       -5.02906121152072       -1.11170574851849
C            2.26737436238575       -4.39133971299454       -0.76961719978945
C            0.95218410281389       -4.87798716188863       -0.43943581533429
C            0.41827730891711       -6.15281934044462       -0.33550528832633
C           -0.90463024821585       -6.28759712146697        0.04822839460667
C           -1.67841493280384       -5.16856196225484        0.33834156279035
C           -1.16127420140569       -3.88810534919163        0.24335794937181
C            0.15381362776434       -3.74281438265885       -0.17228824856316
N            1.36630877671676       -0.35450238921833       -0.05834748617897
C            1.02589434716289        0.93635398838568        0.07398517293232
N            2.05851305889974        1.84320274338749        0.23530821348239
C            2.15636451989171        3.08474847301677       -0.36721465215785
C            1.34815506766501        3.66233915133208       -1.33637605077292
C            1.68775041466012        4.92055227624015       -1.79803321924983
C            2.81366917244623        5.58729778530937       -1.32109261929223
C            3.64945339927716        4.99741756206337       -0.38946730427496
C            3.32822996345316        3.73497426433947        0.08640358900946
C            3.97866219059843        2.82141338319191        0.98943083779046
C            5.14860755220477        2.88319207543582        1.73185431771511
C            5.49657478503335        1.79284782487049        2.50988882992835
C            4.69225318606088        0.65663734428349        2.55602784059002
C            3.51837564537424        0.57470376039347        1.82899248313371
C            3.17130937670882        1.66172654032281        1.04073352558162
C           -0.33859403460754        1.31173502019263        0.20349469961057
Cl          -0.75002063063098        2.88602593074509        0.83106661930659
C           -1.31436865987753        0.36176567515065        0.03049447627191
N           -2.66913739075222        0.65221630267699        0.18081162259593
C           -3.52957828667527       -0.02888675845713        1.01780200883729
C           -3.25043635162099       -1.04985582323893        1.91358724721191
C           -4.30300940606168       -1.56411693611746        2.64873607457400
C           -5.59415433108173       -1.05885714989835        2.51483123833335
C           -5.86888892232954       -0.01694748380279        1.64676644578448
C           -4.83077884955063        0.50833611223151        0.89088405574343
C           -4.73895444780180        1.56985079867715       -0.07727110854352
C           -5.66434451771488        2.44197542543172       -0.63162523862276
C           -5.23481389421021        3.34524881033665       -1.58721829419830
C           -3.90716602169210        3.37005222018879       -2.00648222580039
C           -2.96757877432315        2.50920605778534       -1.46996803770762
C           -3.38635175210397        1.62286075097069       -0.48883105450527
H            3.29247342692791       -1.13699701835675       -0.90176724186185
H            5.39089331536961       -2.28429074900982       -1.50180944642930
H            5.49927724610073       -4.73150362585701       -1.63588502891315
H            3.49233470696485       -6.10535499872458       -1.17556280943740
H            1.02608423215166       -7.01928329513052       -0.54551347025763
H           -1.34089310274139       -7.27131045656049        0.13502674241976
H           -2.70364572065383       -5.29627146409801        0.65165658472951
H           -1.76989639348563       -3.03116426285927        0.48182544946220
H            0.48815948196189        3.14236265500911       -1.72961189810234
H            1.07005089904830        5.39161439908390       -2.54817765392928
H            3.04350088613676        6.57172951732917       -1.70029382174599
H            4.53852504920359        5.50302754176908       -0.04515802678318
H            5.77205306085166        3.76362241236811        1.70069196870196
H            6.40494596789347        1.82105465158058        3.09290645979821
H            4.98915336668595       -0.17774411159176        3.17348636215368
H            2.89569710762256       -0.30489499866868        1.86268501742479
H           -2.24295670785353       -1.41729236698491        2.03839946562123
H           -4.11699694376396       -2.36605543543100        3.34748221586615
H           -6.39007076686765       -1.48235177731221        3.10906582001213
H           -6.86778707671398        0.38243345563920        1.55892164551800
H           -6.69900079175635        2.40970558043710       -0.32579129670908
H           -5.93938025987945        4.03543239853202       -2.02680168517539
H           -3.60467249025189        4.07284864549842       -2.76877208533938
H           -1.94429509926754        2.51925747641507       -1.81332850444899
