71
 energy: -121.005041302470 gnorm: 0.000057384297 xtb: 6.7.1 (edcfbbe)
Cl          -1.52250976584773       -2.53011825393035       -0.91645066173059
C           -0.65583461677435       -1.15582097633526       -0.31214014517387
C            0.74367562586551       -1.14720377597705       -0.20885329047975
N            1.51454033046603       -2.27962204519901       -0.37570917133176
C            2.68455426316365       -2.34429560810736       -1.12995863713939
C            3.33331705680873       -1.34670013110223       -1.83742864518094
C            4.47388647492736       -1.69419616853072       -2.53971388863247
C            4.95437623767291       -3.00094317366303       -2.54536678217098
C            4.30422313030044       -3.99993882399845       -1.84662354643901
C            3.16023789794718       -3.67187999562152       -1.13087834426296
C            2.26798567337490       -4.43432015939820       -0.29688770806504
C            2.25731980094274       -5.75890712974069        0.11824908310132
C            1.27780383541081       -6.16801518061381        1.00306709871301
C            0.33936091263268       -5.26602058876834        1.49491466597411
C            0.33250797709609       -3.94211257710564        1.09267143967102
C            1.27818849665550       -3.53908308322292        0.16350119501499
N            1.39853557691652       -0.01425193269569       -0.00454677416226
C            0.76746675779731        1.13222926923834        0.19904218932711
N            1.56183015956290        2.24788015399394        0.36835793394321
C            1.35216645025845        3.51342356221841       -0.16756698584928
C            0.41767301701563        3.93789536633756       -1.09853070453626
C            0.45199219111121        5.26268886903981       -1.49649652113480
C            1.40635264226538        6.14443955004021       -0.99857952408722
C            2.37457789382611        5.71338968528149       -0.11175709404202
C            2.35779380398067        4.38753215151465        0.29908732120648
C            3.23197801770889        3.60503014689525        1.13363908532909
C            4.37932242097692        3.90833361148390        1.85488867774716
C            5.00714867866829        2.89452330617190        2.55272208559784
C            4.50146735153353        1.59736614951715        2.54061192415975
C            3.35697817840083        1.27456875795610        1.83294036848754
C            2.73035287584071        2.28706379770045        1.12669949554963
C           -0.63167735285884        1.17022990365085        0.30100579869762
Cl          -1.46994257805719        2.56219932300541        0.90482150709247
C           -1.35821121525880        0.01465283388148       -0.00553268551924
N           -2.74950693386325        0.02880902403216       -0.00449939771648
C           -3.56692574867910       -0.76206332211936        0.78612578115262
C           -3.22130199342245       -1.67773088802556        1.76613024167535
C           -4.24512869733519       -2.32346717281691        2.43461731563168
C           -5.58074928590280       -2.05304334908881        2.14747328584185
C           -5.92896013150458       -1.11691193709636        1.19288186204198
C           -4.91691238886049       -0.45982948925988        0.50528158570710
C           -4.90795175635735        0.56004804254902       -0.50950742902748
C           -5.90843006741247        1.23691291171198       -1.19483803972738
C           -5.54400563274935        2.16648239474377       -2.14977852443074
C           -4.20395219492297        2.41116577233761       -2.43934404640019
C           -3.19147329740113        1.74530663345343       -1.77328030879672
C           -3.55287936395305        0.83592705741865       -0.79309816738536
H            2.96870777126520       -0.33228004042948       -1.82680346720915
H            5.00316662382535       -0.93281308043629       -3.09299831646372
H            5.84882373100496       -3.23300618763790       -3.10399283820481
H            4.67371432827719       -5.01388796994708       -1.85295801361416
H            3.00772335562016       -6.44845598976565       -0.23651659942506
H            1.24900320412833       -7.19476407119176        1.33573409033098
H           -0.39530130600906       -5.60120322182032        2.21192594362469
H           -0.38231888546961       -3.24888813029716        1.50692665542443
H           -0.30933654984725        3.26011035873287       -1.51720885250241
H           -0.27357401803267        5.61470476879134       -2.21472262581494
H            1.39892052797195        7.17262555874804       -1.32796299455486
H            3.13705189109922        6.38696898738523        0.24793606219443
H            4.76842482351434        4.91487743087180        1.86620342127525
H            5.90364910700881        3.10730731676611        3.11570037480577
H            5.01378236541679        0.82386740066721        3.09307993520955
H            2.97272111531471        0.26749765820474        1.81734767767290
H           -2.18738788671290       -1.87444854776831        2.00735602966050
H           -4.00240915414223       -3.04803668227697        3.19773450961073
H           -6.35302204863359       -2.57823953165034        2.68930451504054
H           -6.96446071873927       -0.89455970245240        0.98502341217100
H           -6.94763506399297        1.03462612109769       -0.98493001425644
H           -6.30701782461448        2.70678816371855       -2.68988135351489
H           -3.94873973096824        3.13136954418634       -3.20252158255125
H           -2.15441222556093        1.92242166608694       -2.01620990995787
