  53
  -85.5463201916000       0.180871927560857      !
 C          8.8242699243       -0.8504094816        0.3670777969
 C          8.2287336108       -0.0682372433       -0.6107962087
 C          6.8550942365        0.0166155638       -0.6957339117
 C          6.0334348067       -0.6851515507        0.1980604803
 C          4.5922645577       -0.5941627693        0.1247352821
 C          3.7539864241       -1.6838651773        0.5156386737
 C          2.3955144795       -1.6015825645        0.5182476363
 C          1.6758406397       -0.4346335006        0.1320502490
 C          0.2580813854       -0.3789393850        0.0973794686
 C         -0.4265796826        0.6904691287       -0.5388059939
 C         -1.7907990547        0.7724161520       -0.5468806387
 C         -2.5720224228       -0.2222017714        0.0619559194
 N         -3.9591051778       -0.1431851409        0.0490508300
 C         -4.8274514215       -1.1740695812       -0.2574181370
 C         -4.5503085258       -2.4675976053       -0.6786143023
 C         -5.6195246278       -3.3008379850       -0.9510132569
 C         -6.9344537251       -2.8613264874       -0.8227551362
 C         -7.2166252005       -1.5633280437       -0.4372835495
 C         -6.1603069337       -0.7100686522       -0.1581810923
 C         -6.0829067722        0.6731274541        0.2297596070
 C         -7.0381468915        1.6411460991        0.4992523375
 C         -6.6135181963        2.8992094055        0.8862409824
 C         -5.2582464566        3.1868477245        1.0249507860
 C         -4.2879494452        2.2371256050        0.7636293114
 C         -4.7071656326        0.9824206605        0.3424369752
 C         -1.9206396008       -1.3003451233        0.6804501586
 C         -0.5553234988       -1.3771267550        0.6983941440
 C          2.5024772823        0.6765552709       -0.2546873952
 N          2.1006627991        1.9081713041       -0.5549315679
 N          3.0069887348        2.7393447506       -0.8785044736
 S          4.5467899622        2.1011912352       -0.7607887036
 C          3.9194208557        0.5530753100       -0.2851154159
 C          6.6530859445       -1.4810702552        1.1739563845
 C          8.0264739472       -1.5557462931        1.2572853146
 H          9.8999517340       -0.9134148333        0.4336189873
 H          8.8418198256        0.4736149419       -1.3159383063
 H          6.4075919660        0.5959022171       -1.4892126440
 H          4.2281494836       -2.6144082994        0.7863923687
 H          1.8381396778       -2.4844469202        0.7890841633
 H          0.1564529395        1.4481494050       -1.0385664942
 H         -2.2819621593        1.5794801292       -1.0698338386
 H         -3.5353291363       -2.8104155725       -0.8070865963
 H         -5.4297926229       -4.3126339915       -1.2766142595
 H         -7.7427136789       -3.5424386165       -1.0421983508
 H         -8.2358379627       -1.2165740271       -0.3609354687
 H         -8.0894634910        1.4122223250        0.4137813140
 H         -7.3411337634        3.6682965913        1.0974158253
 H         -4.9572930672        4.1714968206        1.3492813979
 H         -3.2419621864        2.4641131131        0.8983157982
 H         -2.5115001905       -2.0473281750        1.1903088791
 H         -0.0971802263       -2.1937130575        1.2326907568
 H          6.0462715370       -2.0094616144        1.8937851800
 H          8.4840003513       -2.1627198650        2.0250636323
  53
  -85.5462134837000       0.161559169301196      !
 C          8.8217771939       -0.8765627639       -0.3097284215
 C          8.0779650037       -1.1807415145       -1.4415198978
 C          6.7044549899       -1.0710942915       -1.4245317916
 C          6.0309610769       -0.6414138577       -0.2705040752
 C          4.5904463043       -0.5183963064       -0.2556856151
 C          3.7601855655       -1.3638677720       -1.0551541553
 C          2.4051081235       -1.2425711573       -1.0899705139
 C          1.6808565547       -0.2738795419       -0.3373035976
 C          0.2632058437       -0.2145891276       -0.3211217180
 C         -0.5372958575       -0.9270511030       -1.2543793185
 C         -1.9033242865       -0.8736724909       -1.2196838205
 C         -2.5688601733       -0.1037175177       -0.2533846545
 N         -3.9569985099       -0.0720567228       -0.2042791625
 C         -4.7921826367       -1.1716478139       -0.2757484614
 C         -4.4732965445       -2.5204197342       -0.3563271426
 C         -5.5145379079       -3.4298441585       -0.3810833866
 C         -6.8423756234       -3.0163805668       -0.3143764237
 C         -7.1653975089       -1.6764662545       -0.1994659986
 C         -6.1376423254       -0.7464183611       -0.1737925857
 C         -6.1035264472        0.6850598154       -0.0347518826
 C         -7.0886257910        1.6530775888        0.0860692904
 C         -6.7049570469        2.9787600958        0.1768375976
 C         -5.3613616359        3.3409583951        0.1257603779
 C         -4.3619325915        2.3933824372        0.0030909563
 C         -4.7391050033        1.0584142226       -0.0540363839
 C         -1.8001456422        0.6214087394        0.6707231137
 C         -0.4350860023        0.5607854725        0.6425545418
 C          2.5014371236        0.6068966257        0.4494390448
 N          2.1010512998        1.6670119608        1.1458124391
 N          3.0008368155        2.3017582953        1.7821124068
 S          4.5350893941        1.6956658004        1.5184468689
 C          3.9124090864        0.4345214454        0.4990725237
 C          6.7984656077       -0.3413021119        0.8644669270
 C          8.1719495145       -0.4599791264        0.8424332614
 H          9.8975272056       -0.9665031070       -0.3257086038
 H          8.5782403161       -1.4995494461       -2.3445524652
 H          6.1425202948       -1.2803063497       -2.3223087937
 H          4.2354204170       -2.1492449569       -1.6219887052
 H          1.8517094432       -1.9494409679       -1.6876589479
 H         -0.0680888388       -1.4899781012       -2.0451053748
 H         -2.4845418387       -1.3904501457       -1.9694837986
 H         -3.4475137380       -2.8541586425       -0.3803899490
 H         -5.2917977456       -4.4842732766       -0.4466829460
 H         -7.6279206239       -3.7565522928       -0.3380650351
 H         -8.1940372626       -1.3585396476       -0.1235227295
 H         -8.1312598113        1.3744323233        0.1036090255
 H         -7.4560446307        3.7478329230        0.2766924205
 H         -5.0931417773        4.3853704345        0.1783086487
 H         -3.3259290931        2.6877788993       -0.0593606687
 H         -2.3010094390        1.1852546275        1.4435680983
 H          0.1381704121        1.0979426453        1.3819515513
 H          6.3054248650       -0.0563732951        1.7817878786
 H          8.7419658461       -0.2328342661        1.7314266942
  53
  -85.5461454781000       0.150341334737341      !
 C          8.8101099133       -0.9734579792       -0.1747094719
 C          8.1563501537       -0.4125235133        0.9118641957
 C          6.7846825810       -0.2730454921        0.9045695844
 C          6.0232467384       -0.6970916341       -0.1942548153
 C          4.5845046165       -0.5535248563       -0.2099439440
 C          3.7491234343       -1.4805559362       -0.9068611428
 C          2.3961195811       -1.3477839387       -0.9679294678
 C          1.6791002477       -0.2844633953       -0.3472594188
 C          0.2619740480       -0.2129257454       -0.3429236883
 C         -0.5430440719       -1.0407538756       -1.1714115960
 C         -1.9089077613       -0.9863377703       -1.1338371412
 C         -2.5701412652       -0.0997356014       -0.2701029895
 N         -3.9575382047       -0.0783795649       -0.2015619884
 C         -4.7753004175       -1.1894123578       -0.1049430497
 C         -4.4356932374       -2.5328686398       -0.0203352819
 C         -5.4614548324       -3.4519312594        0.1018796172
 C         -6.7939329587       -3.0513292664        0.1537467345
 C         -7.1365087238       -1.7122271829        0.1055258540
 C         -6.1244818485       -0.7728208374       -0.0183531706
 C         -6.1113284365        0.6649477358       -0.0657588391
 C         -7.1090855742        1.6270279526       -0.0373829335
 C         -6.7462480115        2.9583668867       -0.1306145423
 C         -5.4116264924        3.3289405561       -0.2733284931
 C         -4.3997798466        2.3871224294       -0.3048511675
 C         -4.7547385835        1.0511082037       -0.1755752061
 C         -1.7970678222        0.7484418214        0.5387248392
 C         -0.4321361115        0.6875322106        0.5088005777
 C          2.5060126027        0.6785932455        0.3291096806
 N          2.1155981124        1.8224473934        0.8842013023
 N          3.0195847537        2.5195710197        1.4450435476
 S          4.5466571814        1.8648540330        1.2737650997
 C          3.9140062569        0.4948624541        0.4135063760
 C          6.7004128813       -1.2719637784       -1.2807733118
 C          8.0721834974       -1.4015344205       -1.2696301967
 H          9.8844077693       -1.0801328343       -0.1678570854
 H          8.7214975126       -0.0889751805        1.7736003413
 H          6.2875883086        0.1270066339        1.7754953432
 H          4.2179803895       -2.3354372406       -1.3686330515
 H          1.8380632965       -2.1162308250       -1.4787923391
 H         -0.0780482430       -1.7007184310       -1.8859247128
 H         -2.4937380504       -1.5971848237       -1.8062183939
 H         -3.4054742230       -2.8532767426       -0.0310851354
 H         -5.2224435060       -4.5029511828        0.1651803564
 H         -7.5670642812       -3.7990827314        0.2470034123
 H         -8.1679654029       -1.4009934268        0.1698121596
 H         -8.1455438949        1.3389346750        0.0507921552
 H         -7.5073250700        3.7236191584       -0.1051901105
 H         -5.1605778196        4.3748123087       -0.3659985156
 H         -3.3716260944        2.6848552397       -0.4397270254
 H         -2.2940838075        1.4113467462        1.2311975865
 H          0.1450154330        1.3219533429        1.1633490627
 H          6.1432505549       -1.5803143672       -2.1525676819
 H          8.5759264276       -1.8342014205       -2.1218458102
  53
  -85.5459518307000       0.122485369976872      !
 C          8.8586776694        0.5118420942       -0.2771827010
 C          8.1909850562       -0.6495280258       -0.6375330094
 C          6.8154061084       -0.7117898407       -0.5745421334
 C          6.0620565473        0.3945056727       -0.1563410630
 C          4.6179127952        0.3448571569       -0.0897725280
 C          3.8266647116        1.5099323422       -0.3373258081
 C          2.4671273010        1.4907037699       -0.3231214697
 C          1.6919427173        0.3311200840       -0.0225177046
 C          0.2740766308        0.3424997007       -0.0213135118
 C         -0.4756072115        1.4378075563       -0.5340584459
 C         -1.8425094464        1.4375365129       -0.5398183354
 C         -2.5639763791        0.3406336813       -0.0425033158
 N         -3.9527537478        0.3369968069       -0.0650433875
 C         -4.7520083232       -0.7105285239       -0.4855509673
 C         -4.3899666422       -1.9390410631       -1.0216586287
 C         -5.4025585364       -2.8011028255       -1.4002549507
 C         -6.7436327602       -2.4520195641       -1.2647190013
 C         -7.1100835157       -1.2161946565       -0.7632104827
 C         -6.1117517908       -0.3357943425       -0.3757945745
 C         -6.1252767302        1.0059360338        0.1430751455
 C         -7.1417372042        1.8867407053        0.4786248472
 C         -6.8012691043        3.1247559135        0.9929133776
 C         -5.4687491477        3.4752842271        1.1934039494
 C         -4.4385999941        2.6124219531        0.8678525907
 C         -4.7726205264        1.3822896279        0.3175326380
 C         -1.8479768200       -0.7540838313        0.4686853840
 C         -0.4816978036       -0.7508249196        0.4848242760
 C          2.4713377793       -0.8424102674        0.2806649372
 N          2.0171093510       -2.0424070495        0.6330743086
 N          2.8936388855       -2.9357669071        0.8600370805
 S          4.4565206159       -2.3881653092        0.6437561936
 C          3.8927096187       -0.8057713585        0.2102116916
 C          6.7534345028        1.5650303388        0.1931430238
 C          8.1297142840        1.6162428719        0.1398451710
 H          9.9363747510        0.5570765593       -0.3233098644
 H          8.7495803991       -1.5103044102       -0.9748426676
 H          6.3108099382       -1.6119939038       -0.8913147753
 H          4.3384442362        2.4259158068       -0.5878010373
 H          1.9517095343        2.4152126038       -0.5285240037
 H          0.0326251925        2.2793897986       -0.9760195288
 H         -2.3813990072        2.2640392548       -0.9798488003
 H         -3.3545832492       -2.2107820062       -1.1553008132
 H         -5.1462750366       -3.7640705202       -1.8154889129
 H         -7.5056189775       -3.1536604425       -1.5688918320
 H         -8.1493449897       -0.9370676158       -0.6798732749
 H         -8.1755301024        1.6066586614        0.3455154327
 H         -7.5776278956        3.8270498896        1.2565614278
 H         -5.2340865001        4.4397943588        1.6180663823
 H         -3.4109613299        2.8838490559        1.0533123055
 H         -2.3913487047       -1.5837869081        0.8958843948
 H          0.0507663919       -1.5876588597        0.9072610757
 H          6.2034708749        2.4233351301        0.5487913313
 H          8.6427571937        2.5219953513        0.4291456781
  53
  -85.5459121448000       0.117448058370373      !
 C          8.8161209231       -0.7885050070        0.6001231755
 C          8.1698031574        0.4282200701        0.7624121683
 C          6.8005281457        0.5138767461        0.6298552578
 C          6.0317567298       -0.6220419501        0.3380496330
 C          4.5939008123       -0.5453465231        0.1985532832
 C          3.7541688052       -1.6410428376        0.5712872109
 C          2.3974813505       -1.5838959786        0.4986246912
 C          1.6740127860       -0.4539440289        0.0126952544
 C          0.2572667859       -0.4116962137       -0.0217199183
 C         -0.4423020188        0.6436183055       -0.6699732930
 C         -1.8061143657        0.7214181707       -0.6573271919
 C         -2.5772722043       -0.2588616418       -0.0115415746
 N         -3.9619990200       -0.1595241631        0.0300518663
 C         -4.8619405258       -1.1820873897       -0.2047352845
 C         -4.6294792377       -2.4897010716       -0.6094794783
 C         -5.7255753710       -3.3094827783       -0.8057166943
 C         -7.0244440832       -2.8436642636       -0.6195102913
 C         -7.2639745244       -1.5322179279       -0.2508807834
 C         -6.1801234231       -0.6925044097       -0.0468990563
 C         -6.0600616185        0.6971286020        0.3055981490
 C         -6.9840513714        1.6858657080        0.6066841057
 C         -6.5195115651        2.9434250324        0.9469269921
 C         -5.1543608564        3.2101081988        1.0091265009
 C         -4.2147547157        2.2394429012        0.7147719789
 C         -4.6754998986        0.9847766456        0.3388362245
 C         -1.9135372328       -1.3306395111        0.6063377173
 C         -0.5483277103       -1.4033751963        0.6050604397
 C          2.5051042141        0.6389553232       -0.4263174546
 N          2.1076241490        1.7873372545       -0.9682861416
 N          3.0229643824        2.6108793810       -1.2869461074
 S          4.5562284564        2.0540813915       -0.9294317631
 C          3.9207627904        0.5700428507       -0.2938998818
 C          6.7008123685       -1.8469474575        0.1900179887
 C          8.0716240810       -1.9232600864        0.3120364862
 H          9.8892478848       -0.8524200809        0.6990339017
 H          8.7397755714        1.3145393862        0.9994956916
 H          6.3108508672        1.4618319607        0.7939127882
 H          4.2240423839       -2.5275541065        0.9675540374
 H          1.8433145423       -2.4541966016        0.8119180605
 H          0.1315707894        1.3918551133       -1.1924997931
 H         -2.3068841221        1.5189196169       -1.1859817176
 H         -3.6288236976       -2.8542525267       -0.7827602112
 H         -5.5703813210       -4.3317767755       -1.1164062326
 H         -7.8545786097       -3.5151698357       -0.7790919995
 H         -8.2717418035       -1.1651720033       -0.1297785159
 H         -8.0418691509        1.4730115209        0.5820256861
 H         -7.2223464647        3.7285585365        1.1814408044
 H         -4.8204480237        4.1948645472        1.2992966641
 H         -3.1598118259        2.4509776841        0.7924696375
 H         -2.4933768485       -2.0725857176        1.1358336837
 H         -0.0848532342       -2.2171501338        1.1386541742
 H          6.1399614109       -2.7339349042       -0.0636405070
 H          8.5683986190       -2.8733250571        0.1780240195
  53
  -85.5457177131000       9.560733637814099E-002 !
 C          8.8239078000        0.6611589335       -0.2310555980
 C          8.2611845906       -0.5665107052        0.0849715834
 C          6.8952894421       -0.7447464326        0.0250185168
 C          6.0478011095        0.3045625418       -0.3594595330
 C          4.6123152359        0.1454003151       -0.4063285492
 C          3.8134699970        0.8865314568       -1.3327503837
 C          2.4553519562        0.8294073555       -1.3405813843
 C          1.6874386302        0.0409985559       -0.4319554453
 C          0.2688178073        0.0521976243       -0.4243475048
 C         -0.4833439302        0.9920088693       -1.1825748862
 C         -1.8474995322        1.0476645493       -1.1133377591
 C         -2.5640055044        0.1492833991       -0.3070413821
 N         -3.9501203029        0.2246245132       -0.2278133130
 C         -4.8305120935       -0.8378862852       -0.3087433159
 C         -4.5759594652       -2.1806332365       -0.5536928641
 C         -5.6565856548       -3.0406622924       -0.6182068296
 C         -6.9615629389       -2.5822455996       -0.4576755059
 C         -7.2237421748       -1.2406885868       -0.2469402708
 C         -6.1555992298       -0.3598256303       -0.1765776196
 C         -6.0601969849        1.0644193483        0.0019072555
 C         -6.9987222260        2.0631317378        0.2109387992
 C         -6.5552738790        3.3612191616        0.3878068265
 C         -5.1956072428        3.6611611958        0.3788737966
 C         -4.2418866350        2.6816861317        0.1728651230
 C         -4.6822796756        1.3821436570       -0.0391050571
 C         -1.8489564018       -0.8165736562        0.4171285799
 C         -0.4830553104       -0.8600345281        0.3658802299
 C          2.4758547480       -0.7508643158        0.4779678551
 N          2.0298729527       -1.5407215339        1.4516064369
 N          2.9097661692       -2.1315705953        2.1520383608
 S          4.4717347847       -1.7269065262        1.7155618054
 C          3.8983899429       -0.6924704403        0.4471980396
 C          6.6363142486        1.5361225206       -0.6902193343
 C          8.0012202565        1.7094656479       -0.6194251662
 H          9.8931947132        0.8000542337       -0.1785683141
 H          8.8944845614       -1.3918738630        0.3752629583
 H          6.4784067960       -1.7178254955        0.2364256267
 H          4.3222225003        1.4844626801       -2.0727749356
 H          1.9360317125        1.3927915684       -2.0991001522
 H          0.0201741239        1.7014433688       -1.8189109186
 H         -2.3907376598        1.7658962866       -1.7101801926
 H         -3.5709771151       -2.5432404428       -0.7033940664
 H         -5.4841774595       -4.0904374450       -0.8021153592
 H         -7.7789857210       -3.2854015808       -0.5113816818
 H         -8.2368225072       -0.8826642619       -0.1447647319
 H         -8.0516138956        1.8278785062        0.2428113617
 H         -7.2699281744        4.1539148743        0.5501459220
 H         -4.8778604773        4.6798244353        0.5434362579
 H         -3.1901004180        2.9212549046        0.1955105618
 H         -2.3865239004       -1.5026958962        1.0544826285
 H          0.0490279718       -1.5904642256        0.9525570493
 H          6.0076273718        2.3707170397       -0.9618387712
 H          8.4319074660        2.6703008340       -0.8617145239
  53
  -85.5456937705000       9.321546315862804E-002 !
 C          8.7818597028        0.4640160173        0.7499734224
 C          8.0709208099        0.9509365827       -0.3366384847
 C          6.7067027398        0.7685941075       -0.4149473136
 C          6.0096028466        0.0945362412        0.5988214328
 C          4.5768666568       -0.0823924401        0.5225599881
 C          3.7622756985       -0.1237145996        1.6963550759
 C          2.4095805263       -0.2651899660        1.6467219630
 C          1.6735801704       -0.3802520222        0.4315479913
 C          0.2563927502       -0.3515039881        0.3845129193
 C         -0.4376296075       -0.1694937835       -0.8419514596
 C         -1.7994675058       -0.0728574031       -0.8953088763
 C         -2.5687770208       -0.1405501616        0.2772723845
 N         -3.9467845780        0.0296123857        0.2338202261
 C         -4.8115507121       -0.5470903783       -0.6778763008
 C         -4.5542338002       -1.4842656204       -1.6694334221
 C         -5.6197998483       -1.9236222460       -2.4332639923
 C         -6.9133933029       -1.4576548147       -2.2131748725
 C         -7.1812704861       -0.5503787494       -1.2041866796
 C         -6.1281003891       -0.0941954075       -0.4265518950
 C         -6.0437708209        0.8070246905        0.6916428233
 C         -6.9793466153        1.5722382542        1.3708619739
 C         -6.5468866933        2.3807425060        2.4062627586
 C         -5.1990264299        2.4456114592        2.7493902159
 C         -4.2482846227        1.6930295798        2.0850922774
 C         -4.6807774184        0.8535696889        1.0674284984
 C         -1.9106673922       -0.3571523464        1.4978240780
 C         -0.5483330161       -0.4622923047        1.5508980023
 C          2.4857323486       -0.4337755609       -0.7546625189
 N          2.0807832412       -0.6981827157       -1.9938760450
 N          2.9728265403       -0.6699385129       -2.8999765942
 S          4.5047411460       -0.3830457636       -2.2979993512
 C          3.8914291127       -0.2369486550       -0.6794736993
 C          6.7435244313       -0.3832737814        1.6953426279
 C          8.1082967624       -0.2038789463        1.7633914611
 H          9.8503742025        0.6064748920        0.8091113832
 H          8.5842807762        1.4844380417       -1.1231368578
 H          6.1618452725        1.1923684645       -1.2451857477
 H          4.2454615577        0.0042047400        2.6524042586
 H          1.8665635463       -0.2398696166        2.5780658999
 H          0.1394304857       -0.0774020072       -1.7488092950
 H         -2.2915942522        0.1190217963       -1.8370874452
 H         -3.5601576399       -1.8700901151       -1.8333922249
 H         -5.4445250476       -2.6475715302       -3.2147070596
 H         -7.7187049484       -1.8214597873       -2.8333625631
 H         -8.1876504804       -0.2064137838       -1.0200206987
 H         -8.0209395765        1.5406717787        1.0897680164
 H         -7.2595515781        2.9827677385        2.9495557755
 H         -4.8875818560        3.1034162298        3.5469381195
 H         -3.2030602179        1.7729083428        2.3404856208
 H         -2.4992728980       -0.4823149205        2.3951549371
 H         -0.0885283703       -0.6739536598        2.5028582149
 H          6.2387856899       -0.9319727501        2.4763245008
 H          8.6580814643       -0.5933379721        2.6081216842
  53
  -85.5455310593000       7.847134051659098E-002 !
 C          8.8149103477       -0.1068236158       -0.8356159408
 C          8.0962819809       -1.1901124422       -0.3517445270
 C          6.7301450429       -1.1040324090       -0.1892065235
 C          6.0381375668        0.0715440719       -0.5162140387
 C          4.6037869833        0.1631185748       -0.3631757840
 C          3.8105031078        0.9656809846       -1.2412954221
 C          2.4577578324        1.0544082116       -1.1327782963
 C          1.6934453642        0.3695712287       -0.1409840252
 C          0.2756259827        0.3999402810       -0.1145839581
 C         -0.4841636200        1.2681386547       -0.9469704276
 C         -1.8518343072        1.2570546273       -0.9463944120
 C         -2.5613693893        0.3612058585       -0.1317110024
 N         -3.9494449428        0.2976314749       -0.1784899170
 C         -4.6917303399       -0.8664914383       -0.2617942288
 C         -4.2624659826       -2.1819521341       -0.3767370543
 C         -5.2255676856       -3.1680929374       -0.4825196769
 C         -6.5835621467       -2.8605180176       -0.4882052433
 C         -7.0163482081       -1.5492584931       -0.4102532554
 C         -6.0681171432       -0.5434549997       -0.3028407261
 C         -6.1523351847        0.8910697869       -0.2369186125
 C         -7.2146186111        1.7814411313       -0.2170782465
 C         -6.9423755467        3.1336849681       -0.1164898192
 C         -5.6324733022        3.5946966248       -0.0141683873
 C         -4.5574733463        2.7252700422       -0.0301830666
 C         -4.8222955385        1.3690476538       -0.1657740047
 C         -1.8359062360       -0.4888803969        0.7177742688
 C         -0.4696050410       -0.4626700506        0.7358454218
 C          2.4819347043       -0.3977467121        0.7902552833
 N          2.0534341947       -1.0304303997        1.8799339619
 N          2.9326384807       -1.6442018684        2.5620348860
 S          4.4771919565       -1.4706958541        1.9468712810
 C          3.8917306955       -0.5038096920        0.6304375283
 C          6.7799808417        1.1549331933       -1.0123251657
 C          8.1470497421        1.0654334872       -1.1615632821
 H          9.8849822183       -0.1757229219       -0.9607993089
 H          8.6063080128       -2.1102449731       -0.1068959977
 H          6.1807512047       -1.9683435852        0.1525025149
 H          4.3112985316        1.4806394795       -2.0462104613
 H          1.9361232268        1.6464117707       -1.8674759307
 H          0.0158456689        1.9660299577       -1.5988480206
 H         -2.3972472789        1.9096498590       -1.6124885966
 H         -3.2128529122       -2.4303455405       -0.3989107530
 H         -4.9163081268       -4.1988977741       -0.5681241119
 H         -7.3056203609       -3.6590214342       -0.5686753593
 H         -8.0683353464       -1.3097039030       -0.4393266983
 H         -8.2310369670        1.4225884214       -0.2724769893
 H         -7.7552568791        3.8440283111       -0.1030688066
 H         -5.4519266263        4.6544698760        0.0858152543
 H         -3.5484708904        3.0922294433        0.0764740749
 H         -2.3719856123       -1.1450320400        1.3872187153
 H          0.0672050291       -1.1082263992        1.4110599232
 H          6.2785863645        2.0831522987       -1.2421925732
 H          8.7019354145        1.9155691761       -1.5313121144
