  45
        -74.88783133
 C         -4.7785513849        3.5107091994       -0.4617759601
 C         -3.4004142591        3.5552809618       -0.5186035800
 C         -2.6547934324        2.3945203544       -0.3800022893
 C         -3.2759510774        1.1696197494       -0.1700912871
 C         -4.6765578649        1.1301207008       -0.1543443200
 C         -5.4154675371        2.2908198735       -0.2896559274
 O         -5.3792908204       -0.0413834557       -0.0257069140
 C         -4.6580204049       -1.2028190809        0.0930125393
 C         -5.3794309705       -2.3752046829        0.2224970488
 C         -4.7241955461       -3.5867953252        0.3842121791
 C         -3.3453690400       -3.6112836508        0.4359519885
 C         -2.6171431794       -2.4386827018        0.3038237528
 C         -3.2567965208       -1.2214229946        0.1051760405
 N         -2.5545932062       -0.0197387325       -0.0290320760
 C         -1.1476130380       -0.0056999303       -0.0145499018
 C         -0.4635637409        0.6995106535        0.9744243916
 C          0.9143322850        0.7134146977        0.9901429628
 C          1.6405539242        0.0217872026        0.0197154805
 C          3.0827227309        0.0168736774        0.0137500523
 N          3.8034036366       -0.6238786196       -0.8323641087
 C          5.1352460126       -0.4644223228       -0.6199435405
 C          6.1588980879       -1.0368534791       -1.3724926585
 C          7.4660646693       -0.7752759291       -1.0246489397
 C          7.7732380605        0.0453213502        0.0596473912
 C          6.7766669236        0.6243063263        0.8210591218
 C          5.4609852464        0.3662698700        0.4777824375
 S          4.0052236824        0.9371920245        1.2293527505
 C          0.9507010309       -0.6843850445       -0.9708935819
 C         -0.4260355759       -0.6967066389       -0.9880701219
 H         -5.3630383920        4.4114177095       -0.5624744007
 H         -2.8899436200        4.4930612289       -0.6748977005
 H         -1.5793476017        2.4422190553       -0.4447300363
 H         -6.4908501890        2.2167020907       -0.2626274421
 H         -6.4558363244       -2.3164588461        0.2003100775
 H         -5.2950589192       -4.4966339162        0.4809941833
 H         -2.8205545096       -4.5422831784        0.5842014128
 H         -1.5408775019       -2.4717884436        0.3655483849
 H         -1.0228032107        1.2272597427        1.7325787038
 H          1.4387699323        1.2551697993        1.7637475305
 H          5.9081107449       -1.6710832718       -2.2078850672
 H          8.2686301186       -1.2115659195       -1.5996809703
 H          8.8065911877        0.2328300911        0.3090829202
 H          7.0106240310        1.2602128760        1.6607017047
 H          1.5201824279       -1.2084392197       -1.7215287899
 H         -0.9577734181       -1.2328876413       -1.7600140503
