  54
        -90.40271530
 C         -5.9837857004       -0.1419661192       -1.3051255315
 C         -5.0359006594       -0.0073265008       -0.0988469909
 C         -5.8469629413        0.1663311351        1.1989013260
 C         -4.1702639106        1.2203381385       -0.3003733844
 C         -4.7635089790        2.4716537906       -0.3966959385
 C         -4.0209789015        3.6215396884       -0.5915844339
 C         -2.6435055125        3.5321079343       -0.7022954380
 C         -2.0274996438        2.3031617390       -0.6148848997
 C         -2.7763168681        1.1389517469       -0.4080727389
 N         -2.1293694959       -0.0809246210       -0.3233815861
 C         -0.7148066556       -0.1184076625       -0.4590864030
 C         -0.1478149050       -0.4332218319       -1.6763717659
 C          1.2415706299       -0.4888712387       -1.8834653131
 C          2.0673738407       -0.2158661874       -0.8194644212
 C          1.4800229034        0.1059380438        0.4294374438
 C          2.4616210287        0.3579814048        1.4177933453
 C          2.0496974549        0.6826640565        2.6866410793
 C          0.6656358608        0.7474642485        2.9410913058
 C         -0.2856619832        0.5036927716        1.9804239069
 C          0.1100674484        0.1685131088        0.6642961784
 C          3.7416018712        0.1881953427        0.7601841054
 N          4.9600047368        0.3106744038        1.2438151659
 C          5.9664815483        0.0975273372        0.4186444247
 N          7.2536046067        0.1375536375        0.5803937929
 O          7.8158944404       -0.1717871632       -0.6225165719
 N          6.8722810805       -0.4158220498       -1.5773120395
 C          5.7133681861       -0.2690618269       -1.0104555781
 N          4.4814849134       -0.3844291431       -1.4635999776
 C          3.4975386935       -0.1644978508       -0.6133342904
 C         -2.8129128842       -1.2616564078       -0.0950608113
 C         -2.0973556458       -2.4564742638        0.0433189117
 C         -2.7510418586       -3.6495276212        0.2596203369
 C         -4.1330531015       -3.6720438251        0.3443835288
 C         -4.8409529182       -2.4905169725        0.2241167992
 C         -4.2093170337       -1.2728898827        0.0109034576
 H         -5.4060051688       -0.2700357653       -2.2184833072
 H         -6.6019714216        0.7448302196       -1.4121264480
 H         -6.6372450968       -1.0019049693       -1.1890061421
 H         -5.1734455857        0.2701889952        2.0475386611
 H         -6.4740044317        1.0517220475        1.1486452721
 H         -6.4878618827       -0.6927383403        1.3738369361
 H         -5.8365463872        2.5577567333       -0.3202845266
 H         -4.5145320583        4.5784895771       -0.6605312905
 H         -2.0482472491        4.4182468622       -0.8606597692
 H         -0.9547119144        2.2368895402       -0.7086196198
 H         -0.8062266557       -0.6468062431       -2.5063997077
 H          1.6345965360       -0.7380709465       -2.8562969872
 H          2.7580552223        0.8842235554        3.4748424049
 H          0.3449605496        1.0015673520        3.9408702189
 H         -1.3360192464        0.5672311470        2.2238736182
 H         -1.0200513325       -2.4413425131       -0.0172631494
 H         -2.1813334398       -4.5604109280        0.3617217707
 H         -4.6561026540       -4.6012695464        0.5082973916
 H         -5.9170087302       -2.5244403343        0.2990967796
