54
 energy: -90.440098291330 gnorm: 0.000077562737 xtb: 6.7.1 (edcfbbe)
C           -6.03562417129176        0.20317602372841       -1.15368230845423
C           -5.01340763424983       -0.01750492165672       -0.02372188398661
C           -5.73563023660434       -0.37615226468614        1.28796726210661
C           -4.23570239353818        1.26594894919020        0.19225629180617
C           -4.91914555331952        2.41897820965380        0.55683117123002
C           -4.26684713683155        3.60878587423812        0.81713873475052
C           -2.88656726518431        3.65175088560070        0.74048827241998
C           -2.18372148924484        2.52209088390993        0.37895631783586
C           -2.84408460269491        1.32887793068897        0.07218267759555
N           -2.11005624450791        0.20549695110085       -0.29859828254394
C           -0.70737632990135        0.29331503874282       -0.40388557501591
C           -0.12979652702861        1.05755573052745       -1.40436306155925
C            1.25550867817512        1.18698291778053       -1.56778598259281
C            2.07966874555039        0.52571784386154       -0.68689314511036
C            1.49552811143985       -0.25011026568172        0.34255396899996
C            2.46316666862226       -0.85759860903299        1.17626882308827
C            2.04601089437768       -1.63225435003870        2.23081314157026
C            0.66327213484563       -1.78063739229941        2.43734739409256
C           -0.27919334630159       -1.19408129983375        1.62508797067477
C            0.11930796688599       -0.39942130359098        0.52723799940843
C            3.75586778273940       -0.45854624432011        0.64951273407130
N            4.93427167083717       -0.77878278860232        1.09252813049711
C            5.92589675551171       -0.22552195183068        0.35908118345962
N            7.22818206463981       -0.32690972697391        0.50736771627903
O            7.76328828297540        0.40611539916581       -0.46969391770553
N            6.86203070977175        0.99031150990773       -1.26106024458969
C            5.68700615417695        0.63140359890194       -0.79177090397070
N            4.45280501187772        0.95348841838562       -1.23563173834917
C            3.51280329368642        0.41011079816288       -0.51845146765702
C           -2.72679929321635       -1.01367822549181       -0.56380911109551
C           -1.96203221219859       -2.08848402557945       -1.02771642346867
C           -2.53851012427043       -3.31589596653321       -1.27546317459406
C           -3.89695707005667       -3.49011497253484       -1.08092838007743
C           -4.66292866655324       -2.41557141214142       -0.67116837732239
C           -4.10797314067105       -1.16798223459160       -0.41610183007241
H           -6.63008484649622       -0.69055838936790       -1.32036639592026
H           -5.51721267371004        0.44788191983543       -2.07889531843593
H           -6.71072818968513        1.01934849743581       -0.91277219577198
H           -5.00843135757680       -0.51847997847184        2.08542739113031
H           -6.41738203296954        0.41568411696241        1.58494638134840
H           -6.30729768079907       -1.29334257342722        1.17741227645873
H           -5.99433770633529        2.39107498229708        0.64593450504488
H           -4.82958792935673        4.48730704862153        1.09247014405749
H           -2.35223694593268        4.56196371192967        0.96696184415804
H           -1.10622321463315        2.56372344002240        0.34375692020525
H           -0.78629687055200        1.57082608433732       -2.09248130257590
H            1.65817167079798        1.78320549369582       -2.37105648272835
H            2.75541185093434       -2.11157228038836        2.88667759475950
H            0.33184320499856       -2.38133874310367        3.27145831253477
H           -1.33051257302789       -1.33921785033358        1.82449114586344
H           -0.90549297064921       -1.95907682959856       -1.20446039454314
H           -1.92503744966866       -4.13189136335334       -1.62623144933454
H           -4.35958739562057       -4.44757875817804       -1.26405593117995
H           -5.72605526119886       -2.55688007267989       -0.55032542726049
