54
 energy: -90.409005697568 gnorm: 0.000069176844 xtb: 6.7.1 (edcfbbe)
C           -6.01291655184280       -0.12408370497355       -1.25898415487770
C           -5.03055873256091       -0.00901834416479       -0.07878508104547
C           -5.80325608589311        0.15336851586879        1.24354319191134
C           -4.16380601486498        1.21651631912291       -0.28955905875147
C           -4.75470800099282        2.47028754649701       -0.36796517734743
C           -4.01276758162089        3.61886692831058       -0.57231464115156
C           -2.63873959055425        3.52482402081033       -0.71358161231830
C           -2.02523737429148        2.29317263595081       -0.64279388407030
C           -2.77280424865120        1.13114170712429       -0.42212443636366
N           -2.12748073634650       -0.09176906423446       -0.35333495658314
C           -0.71341571292008       -0.12840617251278       -0.48074180358317
C           -0.13565694868527       -0.47459218397037       -1.68474794809982
C            1.25542712045852       -0.53413820485497       -1.87897471315680
C            2.07210984582048       -0.23298455967126       -0.81586560444915
C            1.47495761687633        0.12052140148164        0.41888552910036
C            2.44814438166482        0.39501654450065        1.40924080607088
C            2.02601080385461        0.74869618631581        2.66697853547456
C            0.64009140988821        0.81981110618322        2.90824840370424
C           -0.30328696226252        0.55448606452763        1.94526381076397
C            0.10280470111369        0.18866419504909        0.64078240608543
C            3.73322732990366        0.20751869202692        0.76696008037465
N            4.94952317612751        0.33888399198462        1.25793938461597
C            5.96360990534613        0.10386464341853        0.44880489445478
N            7.24934982650061        0.14455912267219        0.62020775852108
O            7.82019282623895       -0.19490562774834       -0.56899419131763
N            6.88608762274966       -0.45958204941297       -1.52511452574325
C            5.72245399467400       -0.29676193394746       -0.97325401479483
N            4.49378444031089       -0.42020776571546       -1.43324664134264
C            3.50122836284255       -0.17782795576435       -0.59786858932196
C           -2.81341732239514       -1.27353419928523       -0.13060193958879
C           -2.10223256913279       -2.47277510269531       -0.01384565221940
C           -2.75850303558674       -3.66577663105912        0.19699075879245
C           -4.13899700706746       -3.68342964877040        0.29997532394430
C           -4.84217902166777       -2.49695842079181        0.20406638849686
C           -4.20771979350480       -1.27991299772902       -0.00460824154959
H           -5.46170836712237       -0.23724852965492       -2.19059091384518
H           -6.63399191737413        0.76400020389981       -1.33384944342759
H           -6.66332479590386       -0.98574580752173       -1.13836685798171
H           -5.10480864292525        0.23481453563887        2.07440837181770
H           -6.41976185723998        1.04743641211638        1.22519176101213
H           -6.44977615298201       -0.70080965206154        1.42265094796832
H           -5.82572174885760        2.55933601038425       -0.26925956004663
H           -4.50441574492649        4.57780397447487       -0.62647750913748
H           -2.04362321051774        4.40931058657061       -0.88212872077397
H           -0.95506588622657        2.22396671153210       -0.76232506284525
H           -0.78695194447663       -0.71195015723796       -2.51387920597253
H            1.65619512015106       -0.80829351347936       -2.84199140519300
H            2.72765078739879        0.96742065520423        3.45669333986755
H            0.31116332617535        1.09652224721247        3.89927605780092
H           -1.35546724514164        0.62419160059180        2.17850319274991
H           -1.02565923264050       -2.46263000374015       -0.08601055039572
H           -2.19110458189096       -4.57994005424667        0.28222407335259
H           -4.66431239612941       -4.61211369466214        0.46053190322852
H           -5.91708218486745       -2.52615142524571        0.29612427896149
