54
 energy: -90.439327539769 gnorm: 0.000045037068 xtb: 6.7.1 (edcfbbe)
C           -4.86657585896753        0.00008890869009        1.21955136068530
C           -3.87243171683657        0.00006654716177        0.04426538812396
C           -4.63120698139917       -0.00008713251792       -1.29536500998229
C           -3.02733919366330       -1.25754725494167        0.12498151815272
C           -3.63782347899353       -2.50138061469126        0.03917387468804
C           -2.91682805866228       -3.67931266716424        0.10558869150726
C           -1.54369276212423       -3.62595250521782        0.26152766692605
C           -0.91129151549890       -2.40387913971944        0.35336667038213
C           -1.64000996828374       -1.21356285423663        0.29010523243795
N           -0.97598792166357        0.00028670785142        0.39275253402237
C            0.43071858168789        0.00037688209059        0.56661727774265
C            0.97197670929986        0.00135288413431        1.83735272574923
C            2.35535900199242        0.00150408535949        2.07828860823054
C            3.20236418274407        0.00065126915709        0.99626684928987
C            2.65071338881042       -0.00029767931829       -0.30622811047934
C            3.64030301784857       -0.00097867689652       -1.31653944937682
C            3.24858919853878       -0.00184551143215       -2.63306288429116
C            1.87084709713591       -0.00205160921985       -2.91695529248349
C            0.90701700429041       -0.00141236733722       -1.93578004154269
C            1.27998543386118       -0.00049373266470       -0.57363093164770
C            4.91799612011864       -0.00052841767998       -0.62707152584370
N            6.10892625556309       -0.00090208152462       -1.14616171469419
C            7.07931745854480       -0.00027262601796       -0.20552432650588
N            8.38581948445101       -0.00035894284951       -0.35448136991028
O            8.89183782648136        0.00041293526021        0.87863590232588
N            7.96920696541658        0.00108686783179        1.84065041340151
C            6.80809987364167        0.00072310654053        1.22331409984079
N            5.56068884151155        0.00110479067218        1.74286591816170
C            4.64287026900916        0.00048318327003        0.82300393529928
C           -1.64017497894191        1.21403343834223        0.28993185773757
C           -0.91158887293708        2.40445248492563        0.35276059982223
C           -1.54414678529037        3.62642664654814        0.26067836488245
C           -2.91730358847627        3.67958091333470        0.10485978513226
C           -3.63815441276203        2.50154417458267        0.03873802078737
C           -3.02751079129253        1.25780617418133        0.12480403560564
H           -5.50203416032755        0.88086828482162        1.18932265584915
H           -4.32429235207915        0.00023554964871        2.16327787595416
H           -5.50187299086290       -0.88081211796057        1.18950212591206
H           -3.92392244719947       -0.00014768633933       -2.12284448367657
H           -5.26228115366568       -0.87968579262960       -1.38468793480188
H           -5.26233737643787        0.87945228946187       -1.38487037564647
H           -4.70889500730808       -2.55934570661846       -0.08146696371114
H           -3.42422702743546       -4.62916796432314        0.03614519217753
H           -0.96162316487250       -4.53371627962216        0.31356411681781
H            0.16080372578781       -2.36753451290599        0.47709996587176
H            0.29406293228889        0.00201174873802        2.67862736732156
H            2.73520161488779        0.00217728565007        3.08755768885756
H            3.97404711033604       -0.00239468128148       -3.43117625145495
H            1.56275329437842       -0.00272115330816       -3.95209221242192
H           -0.14024871109868       -0.00157600828230       -2.19927760245356
H            0.16053404926043        2.36826362892131        0.47629678078014
H           -0.96217670785651        4.53427257219744        0.31239407654298
H           -3.42482438919065        4.62935740058230        0.03523019330262
H           -4.70923706374669        2.55934795674369       -0.08188388940370
