  54
        -90.44008935
 C         -6.0310876774        0.2031592622       -1.1581911352
 C         -5.0134980496       -0.0172722035       -0.0238997693
 C         -5.7412590078       -0.3730154475        1.2854749556
 C         -4.2351038901        1.2654374763        0.1938204461
 C         -4.9179597775        2.4179581576        0.5611069125
 C         -4.2652644800        3.6074066279        0.8220007942
 C         -2.8851216276        3.6505545979        0.7427571096
 C         -2.1828618856        2.5213037052        0.3788320264
 C         -2.8436186359        1.3282833610        0.0721254108
 N         -2.1100934479        0.2048896721       -0.2999503440
 C         -0.7074361211        0.2925065618       -0.4051812913
 C         -0.1299360972        1.0578811546       -1.4049092661
 C          1.2553378652        1.1884844549       -1.5676223842
 C          2.0796282138        0.5270919074       -0.6869477814
 C          1.4956185117       -0.2503432156        0.3413524874
 C          2.4633702101       -0.8582869055        1.1745851456
 C          2.0464248680       -1.6338971959        2.2285184226
 C          0.6637188572       -1.7826691984        2.4350149417
 C         -0.2788771566       -1.1961189802        1.6229170081
 C          0.1194156201       -0.4005964372        0.5255802519
 C          3.7559943172       -0.4582126967        0.6483951745
 N          4.9344289333       -0.7795196397        1.0904129477
 C          5.9259537273       -0.2249210506        0.3578326490
 N          7.2282001260       -0.3265500940        0.5056980256
 O          7.7632050320        0.4087777851       -0.4696633620
 N          6.8618565151        0.9947620416       -1.2595014296
 C          5.6868913539        0.6350455814       -0.7906613980
 N          4.4526449963        0.9576754783       -1.2338992186
 C          3.5127551467        0.4124418339       -0.5180155411
 C         -2.7271446453       -1.0146492287       -0.5627132666
 C         -1.9628454624       -2.0900402994       -1.0260684265
 C         -2.5396271591       -3.3177257798       -1.2718631799
 C         -3.8980791172       -3.4913547721       -1.0768848262
 C         -4.6636240696       -2.4162293608       -0.6679125123
 C         -4.1081493691       -1.1687661427       -0.4134174065
 H         -6.6345805715       -0.6859242997       -1.3172865776
 H         -5.5081232366        0.4332953422       -2.0845671452
 H         -6.6977711535        1.0289679842       -0.9267985402
 H         -5.0186490378       -0.4986970454        2.0897623862
 H         -6.4356872520        0.4124165784        1.5697771177
 H         -6.3001722034       -1.2984028290        1.1790804777
 H         -5.9930193157        2.3899020148        0.6517804525
 H         -4.8275286773        4.4855275013        1.0995620564
 H         -2.3503842502        4.5606585909        0.9687928169
 H         -1.1054455009        2.5632092923        0.3419380917
 H         -0.7865674731        1.5715117980       -2.0927228586
 H          1.6578831515        1.7864065867       -2.3696722787
 H          2.7559638178       -2.1134747898        2.8840698241
 H          0.3324154198       -2.3843883000        3.2684596899
 H         -1.3301381076       -1.3419212067        1.8221196602
 H         -0.9064425921       -1.9608162284       -1.2039273567
 H         -1.9267453438       -4.1338880071       -1.6232949112
 H         -4.3609399221       -4.4490297830       -1.2583631993
 H         -5.7267381948       -2.5572367496       -0.5462672983
