167
 energy: -250.319270299088 gnorm: 0.000085879533 xtb: 6.7.1 (edcfbbe)
C          -15.65495736861987        7.68589742079025       -4.55409709987312
C          -15.12036630060094        6.91338571955528       -3.61542771450084
C          -15.21599180803913        5.46114321472134       -3.51926991398073
C          -14.71417182224491        4.82381101535886       -2.38321179973481
C          -14.78632348452195        3.45216334442896       -2.24106609603318
C          -15.34854109921348        2.67085047222479       -3.24139072382931
C          -15.44373891855700        1.17160357500850       -3.09287089184025
O          -14.49996786090776        0.61239758326177       -2.20411484736508
C          -13.18156396038156        0.59775138381961       -2.56222073085056
C          -12.65970930292494        1.11008738691967       -3.73956117959709
C          -11.29475802435751        1.02584987519308       -4.01030656661675
C          -10.40513837324075        0.44047575898436       -3.13492239547576
C          -10.91519670649154       -0.06769679330151       -1.94494176922515
C          -12.29607535403275        0.00580860566942       -1.65271766221153
C          -12.47673494075694       -0.60481210771016       -0.36836893884536
C          -13.58320193928265       -0.83343898856748        0.44048372275150
C          -13.39597717998636       -1.46929861861241        1.65186987386480
C          -12.12696241950889       -1.87669472347982        2.06015281196592
C          -11.01271079120761       -1.66185977607156        1.27192099586837
C          -11.19045758207852       -1.01880561375339        0.05398502274651
N          -10.26314718745605       -0.67373070763293       -0.90005133102943
C           -8.86367097474340       -1.00290247618722       -0.83532000165280
C           -8.58991697829899       -2.43621366884688       -1.30986732856953
C           -7.20170636525765       -2.90774213462247       -0.88575294162001
C           -6.93867692345767       -4.36071331885026       -1.28239167965528
C           -5.73419209795652       -4.96521954506821       -0.55682702250166
C           -5.97854186800818       -5.16219224276834        0.94490650476034
O           -5.85036026328988       -3.96888772333045        1.69995387450537
C           -4.61866040852991       -3.47961018978123        1.99999078827839
C           -3.40957348135985       -4.13532844985646        1.80986786483600
C           -2.21199669801071       -3.56263656574018        2.22623810835477
C           -2.15807463260921       -2.31312317413610        2.80889653970547
C           -3.35250888326550       -1.62137557102758        2.94680541750813
C           -4.58174345306124       -2.20321843421047        2.57970497794820
C           -5.60872812083055       -1.25656057631825        2.91470650528633
C           -6.99258969692314       -1.26304417070097        2.79407976629917
C           -7.69868168242588       -0.14344556655168        3.18806211452080
C           -7.04014764794024        0.97718114741224        3.68787539598442
C           -5.66515313156715        1.00004744964242        3.83379810211909
C           -4.95536848188503       -0.13290775107517        3.46523835361803
N           -3.58789784537384       -0.36585986939257        3.48399840268704
C           -2.63797850553054        0.49990586878895        4.02356608354096
C           -2.84803349015862        1.05557319626702        5.28288065693133
C           -1.92911085207173        1.93546940708513        5.82516718393239
C           -0.76641929720293        2.24905031090815        5.14306727863928
C           -0.51913202365926        1.69400729901131        3.89313336999015
N            0.67106555707121        1.98883472410305        3.22355498975976
C            1.16542706151794        3.25979469313815        2.98499653944500
C            0.56584275050665        4.49153971349955        3.19697449313801
C            1.27625008255105        5.62227059190763        2.83742033790065
C            2.54637982101580        5.53203407020074        2.27271233487659
C            3.13862220269263        4.30576135512734        2.04056007507986
C            2.44485444814433        3.15620744785215        2.39643345003423
C            2.73686578432298        1.75315921779669        2.30088987197556
C            3.86683967277863        1.04254254528214        1.87129977116783
O            4.91637395066371        1.78551436381176        1.43126349665972
C            6.15426351006905        1.15686467820426        1.14351178335721
C            6.20954432066987        0.56913046143468       -0.27026352929138
C            7.40522077543151       -0.36333017579983       -0.47406835769083
C            8.77184617997249        0.31677911791808       -0.35450067822396
C            9.12086522419930        1.22080060842584       -1.53886663465292
C            9.61599362115627        0.43881904469151       -2.76347310718140
N           10.90026290002205       -0.17059305091336       -2.53105016062242
C           12.09767859612731        0.50287473185777       -2.54837262786275
C           12.35882138147475        1.83330210336837       -2.85140698592595
C           13.67327220696953        2.25728153764796       -2.83138206703616
C           14.71402206283309        1.38130108405363       -2.52847742254823
C           14.46462652315215        0.05760539888733       -2.22637169374015
C           13.14768364088545       -0.38888919205658       -2.21951175763533
C           12.52836782982800       -1.66140899919185       -1.97462257265911
C           13.00774413699829       -2.92317077940683       -1.61003978490915
O           14.35013433477386       -3.15745897761216       -1.37429298756391
C           14.84277937223225       -2.59931145614743       -0.16212665097542
C           16.32272663597132       -2.34563839424983       -0.26105651780796
C           16.90758873911440       -1.30747910016889        0.45594007455933
C           18.26630162661045       -1.07691429908538        0.38098031475802
C           19.08629447823157       -1.87359605997138       -0.42051068152501
C           20.52544434614083       -1.67012901292079       -0.54121618238232
C           21.25315419074478       -0.73630771208313        0.06082701345330
C           18.48760168405670       -2.91104942491508       -1.13836761909856
C           17.12922507802168       -3.14662146775103       -1.05880864552952
C           12.11089991849386       -3.97452260784534       -1.51463904443136
C           10.75433901922447       -3.78378454889984       -1.76145698100768
C           10.24880103938477       -2.54262585419250       -2.08889995203382
C           11.13946986075500       -1.48001966300282       -2.19469087336204
C            3.82890846840854       -0.34284339209764        1.96210140432706
C            2.71729971879799       -0.99832772642214        2.48330344783519
C            1.60351470813366       -0.31542138622639        2.92562329495449
C            1.61835956883971        1.06709138177476        2.81310113121061
C           -1.47236732251985        0.83799604531239        3.31037009312105
C           -1.30028256220891        0.42623291575412        1.97231127560809
N           -1.18224439211552        0.16124901189634        0.86147725884998
C          -15.84667645563797        3.29457468729866       -4.37994464031913
C          -15.78514664848450        4.66639049261757       -4.51627557493673
H          -15.53009441483362        8.75536855462793       -4.53503899688651
H          -16.23760938406572        7.29487404172684       -5.37062268361762
H          -14.55641538014011        7.37768644177237       -2.81485200246288
H          -14.26687293108188        5.41518527573453       -1.59645858862530
H          -14.39692773415872        2.97757955053277       -1.35157759339334
H          -15.38095818043534        0.68570800337967       -4.07653441939273
H          -16.41310299314373        0.91273046778750       -2.64844465438833
H          -13.29940059767651        1.59248753343995       -4.46125324577723
H          -10.93098047677270        1.43616590837667       -4.94118177538162
H           -9.35449513482306        0.38455615622362       -3.37216620967988
H          -14.56325484722883       -0.51769240136068        0.11712089040650
H          -14.24323972643468       -1.65743136930555        2.29577693079639
H          -12.01330922968630       -2.37381818204244        3.01312958571188
H          -10.03767758888799       -1.98758944694233        1.59979390216135
H           -8.53364448638379       -0.89381963223377        0.20214814281740
H           -8.30397397360269       -0.28668040740814       -1.44049325898853
H           -9.34291587834568       -3.09384689413704       -0.86840012075232
H           -8.69771094300121       -2.49225991037728       -2.39506675232105
H           -7.12039700476087       -2.81585037045832        0.19658061739515
H           -6.43895519271799       -2.26201884984855       -1.32737617806661
H           -7.82195770667998       -4.96222270267629       -1.05390417672711
H           -6.77125580070679       -4.41999635375282       -2.36014619526012
H           -5.51238937237565       -5.94155521078097       -0.99171187040118
H           -4.86034710560166       -4.32508194665175       -0.69538636495898
H           -5.31529924371812       -5.93629288880792        1.34632767314428
H           -7.01178035722353       -5.47799864184341        1.11574083908139
H           -3.37573563292022       -5.10718517034118        1.34489194449113
H           -1.29659723648341       -4.11758301814609        2.08534752502987
H           -1.21731920077875       -1.89973729182022        3.13348454229915
H           -7.49133745230517       -2.13612760331369        2.40427838451041
H           -8.77532520393670       -0.12636059015002        3.10259327010695
H           -7.61531448040665        1.84679674090238        3.96937091617664
H           -5.16648630967244        1.87893684114562        4.21349526630886
H           -3.73158228044864        0.77761544890375        5.83560675557380
H           -2.10655334270639        2.35879162048071        6.80161728465211
H           -0.03149048474537        2.90834511207129        5.57791394618363
H           -0.42416563653415        4.56879749972149        3.62119667711776
H            0.83444034005628        6.59517052128056        2.99522256845993
H            3.06979744438504        6.43835926057638        2.00588312968043
H            4.11559020045225        4.22700972488639        1.59066887087227
H            6.88817337313292        1.96002539876819        1.25082489348074
H            6.37145939323227        0.38559711936278        1.89213816792748
H            5.29046304446070        0.00660205404673       -0.44944303969555
H            6.23000577403221        1.38770064584544       -0.99076645865834
H            7.31213724768056       -0.82419392056501       -1.45879802103200
H            7.35268564479184       -1.16517200314790        0.26658366852206
H            9.54017522790849       -0.45428813188734       -0.26451960796322
H            8.79873467893716        0.90338098896453        0.56406357750500
H            8.25132783456689        1.80988711060354       -1.83017171319040
H            9.90825031586473        1.91381940522260       -1.23676215487459
H            8.90491305868189       -0.34414926429774       -3.02934776329296
H            9.70668989840111        1.11729182881261       -3.61765917846538
H           11.56550197821953        2.52045142653844       -3.10303761480495
H           13.90105735692587        3.28783391851168       -3.06328669949858
H           15.73184875857758        1.74338929098493       -2.53545485936065
H           15.27819520064290       -0.61901679177181       -2.01375682647999
H           14.64690150828871       -3.31060296798900        0.65984282227509
H           14.31610847868626       -1.66586428641043        0.07188467441285
H           16.28869336140762       -0.67308606997739        1.07504449815291
H           18.69200045684248       -0.26356128589322        0.94770563075418
H           21.02123864055225       -2.37313424852617       -1.20048703348480
H           20.83013194020383       -0.00476453160620        0.72783092713205
H           22.31658187939615       -0.67053422832842       -0.09575963076157
H           19.09947841720037       -3.54179999125347       -1.76825225987390
H           16.67658059929140       -3.94667707259769       -1.62512110017236
H           12.48416001796369       -4.95177848926103       -1.24751575239759
H           10.08418571762772       -4.62676198299195       -1.68034835791009
H            9.19186753631390       -2.41387282475517       -2.25839520980440
H            4.66560481352162       -0.94010464459578        1.63882487546865
H            2.73622859874290       -2.07610249970698        2.54790061738933
H            0.76431542669637       -0.84160740747443        3.35167271914165
H          -16.28462075821114        2.69562246257623       -5.16656198830569
H          -16.17433086868942        5.12280615905123       -5.41306118827040
