167
 energy: -250.240212823748 gnorm: 0.000151313832 xtb: 6.7.1 (edcfbbe)
C           -1.90126472770067        3.27101905098961       -1.30577622832194
C           -1.09669342012175        3.95007433693120       -2.12501840225896
C            0.17860893365485        3.49624348129188       -2.64889423149256
C            0.59719635640813        2.16206603493396       -2.56975711964339
C            1.81087469577049        1.77053464573894       -3.09004089852591
C            2.66093458059482        2.69221268878217       -3.69635372838444
C            4.01347416813302        2.24837090474420       -4.18097585141363
O            4.87588205968442        2.25749102208017       -3.04787856702976
C            6.05274344143262        1.58383688659185       -3.08671093401234
C            6.59723868357836        0.95998478030803       -4.20401677605710
C            7.79973028769609        0.26372140970365       -4.11539190332356
C            8.50066398434354        0.15051132508052       -2.93082457130315
C            7.97107598304603        0.77734084104315       -1.80621268038815
C            6.76258841826866        1.50486112592280       -1.88125112090244
C            6.51842646512596        2.03476916134509       -0.57104159123397
C            5.52135917356611        2.83616328177733       -0.03112102537501
C            5.60608323068488        3.18286615960638        1.30337121028649
C            6.66422565822463        2.73950178748459        2.09564965308617
C            7.66607529220088        1.94044813417016        1.58133085620562
C            7.59139467778288        1.58799865022291        0.23857507908355
N            8.45452395088151        0.83640966506431       -0.52104095218329
C            9.57403637556150        0.10261843672176        0.00846265510168
C            9.11751250672624       -1.18619364632961        0.70753625251008
C            8.60911442596663       -2.23189309278783       -0.28376544987552
C            7.88303177567315       -3.37586063921882        0.42277152475164
C            7.53402309966756       -4.53536383030235       -0.51155194665901
C            6.40921280692306       -4.22970021924578       -1.50417198914309
O            5.15050985025633       -4.18151520404370       -0.84504066151727
C            4.39054554815980       -3.06553915855693       -0.79586718756814
C            4.77202220173249       -1.77792117341454       -1.17409073707427
C            3.88069018856297       -0.71288570128280       -1.10874001952659
C            2.57991648804912       -0.86963484342192       -0.66121864307830
C            2.19775006040961       -2.13596430699552       -0.24194139823189
C            3.08384249046764       -3.23406568848162       -0.30901160199099
C            2.35918128111857       -4.37464730931576        0.16515787353970
C            2.69041321647556       -5.71002034892771        0.35512829290431
C            1.73884543776678       -6.55703167565366        0.88885550858270
C            0.47412161446863       -6.08782736574289        1.25035648935147
C            0.12079574599606       -4.76628647279647        1.06811890226636
C            1.05844809732550       -3.91190884637169        0.50090644612339
N            0.97411828801449       -2.56411971155300        0.24201596449048
C           -0.14854680181084       -1.74235571216445        0.39144999367664
C           -0.02275817006576       -0.52017351747490        1.01943138122206
C           -1.10156284765204        0.35354493005300        1.12298421091624
C           -2.34890827147892       -0.03172307685570        0.62694027820498
C           -2.52312154554418       -1.26018261529267        0.03522877013154
N           -3.80471913601568       -1.64432654440623       -0.39230443079915
C           -4.50570802577704       -2.74358210638565        0.04184958749926
C           -4.13187051116646       -3.72757432154707        0.94717896747324
C           -5.04640718724260       -4.72046956779653        1.23661291804317
C           -6.31029740238148       -4.73610099020409        0.64523510279797
C           -6.69828776739499       -3.75004259281696       -0.24211739497628
C           -5.79737005325755       -2.73772132560950       -0.54441121185514
C           -5.85923143987200       -1.56629811073938       -1.36933342181551
C           -6.86124276795720       -1.00881613599542       -2.17397198748064
O           -8.04954796187646       -1.66331167236162       -2.21923778632948
C           -9.20829825685781       -0.98008853091133       -2.67220645245795
C           -9.59797807617923        0.17092691677258       -1.74069002019324
C           -9.85084996721178       -0.32756967391824       -0.31446235276361
C           -9.57251784933887        0.73363235819370        0.75162701100413
C           -8.07583630481827        0.97419586889224        0.94803580716541
C           -7.79922219149851        1.88719797809537        2.14821822457715
N           -6.38881703831674        2.04481707746748        2.38575847962588
C           -5.59808512655323        1.12985725361766        3.03531766908875
C           -5.94013129120460       -0.08911539614095        3.60992012492029
C           -4.93926112816715       -0.81797164434619        4.22149116995316
C           -3.62675992574335       -0.34940246304300        4.27437291546577
C           -3.27685766380336        0.86043132475268        3.70712131733791
C           -4.26274387014824        1.60312036265408        3.07072317648506
C           -4.26707415409479        2.85769081405838        2.37424126951359
C           -3.25757069410474        3.77528751621194        2.05361743439081
O           -2.00038843233730        3.45809035083657        2.44321096092696
C           -0.90074317822151        4.24882510564446        2.00355353736446
C            0.34253240334802        3.47538736442681        2.35154104744339
C            1.18059563084700        2.97321754759385        1.36168018284254
C            2.25568931042880        2.17219401130788        1.68994707374163
C            2.52420022875790        1.83971752470139        3.02087088942634
C            3.60525924056426        0.94908519920165        3.41341647304878
C            4.35401766573284        0.20466729559578        2.60453007715125
C            1.69535266216845        2.37862972148081        4.00991732950329
C            0.62260595301515        3.18087327911644        3.68205775545321
C           -3.62261475765331        4.92746310426260        1.36262400925056
C           -4.94372407833251        5.14426346406376        0.98299075350527
C           -5.94843686398886        4.23834884634537        1.26390418723217
C           -5.60044916586195        3.09003464792258        1.96778754037599
C           -6.55442108488769        0.15939255401603       -2.87109405185858
C           -5.30343538640117        0.75802517975976       -2.76267378844450
C           -4.31239118744061        0.23878517477863       -1.95028697258672
C           -4.60633437376651       -0.92346536642701       -1.25022369385509
C           -1.41639956222423       -2.15244096112576       -0.15100064263544
C           -1.55500579465572       -3.28037123883520       -0.93323635963086
N           -1.69025807041272       -4.21741813052323       -1.61043368480679
C            2.25610082735060        4.02036500132362       -3.78001340694139
C            1.03272366822662        4.41107406375233       -3.27724763460083
H           -2.84056087719702        3.67925187768776       -0.97260347623726
H           -1.65214897007765        2.29437310171424       -0.92506355524695
H           -1.38929142151701        4.94593190047970       -2.43834506687698
H           -0.04271715498578        1.42412026882106       -2.10913339162153
H            2.10992612824283        0.73364444768981       -3.02973058128488
H            4.40490943335453        2.92856455406195       -4.94924459698267
H            3.94878042817759        1.23362945301643       -4.59378323705552
H            6.09716434686212        1.01233856764729       -5.15820113639887
H            8.18946396982973       -0.20497168208021       -5.00687153681234
H            9.42396450546862       -0.40480908445925       -2.89246249541046
H            4.70615329182131        3.17911927550396       -0.64982685932854
H            4.83996295439530        3.80292853744239        1.74457830789581
H            6.69856840452442        3.02881326195440        3.13565850792903
H            8.47830111194270        1.60726426138018        2.20891224106027
H           10.09978270697384        0.74367807069134        0.72191505239883
H           10.25805176917467       -0.13363747972920       -0.80864369327177
H            9.95279273296060       -1.59491487930636        1.27832688863472
H            8.31968826393959       -0.93536045357628        1.40924920734811
H            9.45204507905746       -2.63360097623555       -0.85097291918689
H            7.93257175608726       -1.74962519922502       -0.98958436196764
H            8.52432316349185       -3.76055954918878        1.21918410904603
H            6.96904039431763       -2.99995225909556        0.88850871352035
H            8.41789024662361       -4.82591006031074       -1.08206693423093
H            7.21935868832906       -5.39286373195036        0.08649391880478
H            6.33226287530145       -5.05870897994410       -2.21903041044597
H            6.60945744958567       -3.31681164505061       -2.06565837700076
H            5.76837053376588       -1.57438316221285       -1.53124234007752
H            4.21801899473965        0.26428119649362       -1.41794305532062
H            1.89440421996963       -0.03844854514488       -0.64325487030482
H            3.67427829888250       -6.06422520747034        0.09150091721156
H            1.97496083638379       -7.59983539688369        1.04119509495187
H           -0.24149126048425       -6.77132383845796        1.68226572234713
H           -0.85446983683394       -4.41008064881767        1.36022303008256
H            0.92493320574966       -0.24778542190063        1.45935589010244
H           -0.98469444947194        1.30276455307045        1.61430136672100
H           -3.20104009646300        0.61969793986666        0.74786883941943
H           -3.15829329699720       -3.71131479513551        1.41257869661832
H           -4.77842642181920       -5.50020041877157        1.93414713021994
H           -6.99542592977251       -5.53376495636456        0.89180500891684
H           -7.67667016752817       -3.75644881790260       -0.69669229863396
H           -9.07402434472055       -0.62400290908108       -3.70048634096449
H           -9.98479351357367       -1.74951636113556       -2.67085472046758
H           -8.78793857269480        0.90004843500412       -1.73382669464642
H          -10.48754653600234        0.65765405845443       -2.14198676320310
H           -9.20492693465433       -1.18714109643790       -0.12225992610443
H          -10.88502843440424       -0.66653678636035       -0.22927619174823
H           -9.99745002066209        0.39388405099544        1.69883139792016
H          -10.06788001715083        1.66849379479232        0.48135852730225
H           -7.57466403242681        0.01731653992247        1.11059688138139
H           -7.63563831573092        1.42385356628406        0.05634879564169
H           -8.23745711944654        2.87311743890831        1.98031715320666
H           -8.25462186280829        1.46111343565635        3.04759866023887
H           -6.95167907831909       -0.46351228524218        3.58184847653908
H           -5.17745488656372       -1.77206675757526        4.66875363742488
H           -2.87207780677101       -0.94613727178179        4.76561998472549
H           -2.26283537262522        1.22420141412958        3.74697844954737
H           -0.91701160074326        5.22171253259111        2.51622973106958
H           -0.95913866153296        4.40640173580901        0.91942229774999
H            0.97903551542111        3.20104663571531        0.32415527009104
H            2.89491658323000        1.79668764363739        0.90655701203172
H            3.77319180773265        0.88961095964040        4.48255720625564
H            4.23312319722582        0.19892627676704        1.53506710768347
H            5.12080386475084       -0.44082698002043        2.99706496815975
H            1.89098496540196        2.14738710686180        5.04787479193272
H           -0.02162879289039        3.56973811427214        4.45768430014272
H           -2.88046132577622        5.66804400670243        1.10939371555636
H           -5.18293101113737        6.04926723452348        0.44415975456799
H           -6.96062975866705        4.42538258931813        0.94313261808960
H           -7.28256606655895        0.61007811762026       -3.52635736147641
H           -5.10488207377829        1.65462627041636       -3.33036332975974
H           -3.34779227809625        0.71318139503948       -1.87272740428024
H            2.90465178561003        4.74871677597993       -4.24626869045702
H            0.72880028764503        5.44576225780947       -3.35729261276485
