  84
       -131.92079966
 C         -6.4517018830       -1.6833415397       -0.2504155274
 C         -5.7227938696       -0.7401885233       -1.2119580846
 C         -5.7481777836       -1.3039989110       -2.6358134517
 C         -6.3114029767        0.6530500588       -1.1647203436
 C         -7.5881028178        1.0631708330       -1.4801633108
 C         -7.9078688192        2.4097615029       -1.3615221302
 C         -6.9621118197        3.3285601986       -0.9340222912
 C         -5.6755891569        2.9252590501       -0.6149786661
 C         -5.3540443739        1.5830711505       -0.7320569980
 C         -4.1111790081        0.8775308441       -0.4783468925
 C         -2.8853154105        1.3294465247       -0.0207934215
 C         -1.8421398620        0.4310221204        0.1423696118
 C         -2.0286956188       -0.9217187883       -0.1715123167
 C         -3.2764408292       -1.3807024790       -0.6062155147
 C         -4.3055227631       -0.4829718252       -0.7535409655
 N         -0.9534832126       -1.7984658714       -0.0860232190
 C         -1.1972209324       -3.1978597834       -0.1563789684
 C         -1.4440673440       -3.8881691933        1.0220550030
 C         -1.6936775485       -5.2490275656        0.9819872897
 C         -1.6978837503       -5.9192061795       -0.2298568652
 C         -1.4527196282       -5.2290747477       -1.4059937474
 C         -1.2028214147       -3.8686864012       -1.3736544977
 C          0.3341011848       -1.3158499144       -0.1580540861
 C          1.4048284537       -2.1340891173       -0.5305402686
 C          2.6704868607       -1.6151759514       -0.6751722043
 C          2.9151459481       -0.2550523928       -0.4698556149
 C          4.2324734829        0.3260270519       -0.6778177872
 C          4.3908713291        1.6506581612       -1.0574902343
 C          5.6366405434        2.2406021539       -1.2688654500
 C          6.8161499423        1.5349334049       -1.1086535210
 C          8.0690723359        2.1360206871       -1.3247479112
 N          9.0822497855        2.6459943797       -1.5028793122
 C          6.7168810130        0.1792400270       -0.7199142006
 N          7.7171616338       -0.6719543023       -0.5010838249
 S          7.0996118124       -2.0889290549       -0.0677135378
 N          5.5445601638       -1.7002378063       -0.1386704970
 C          5.4259878173       -0.4245799589       -0.5120460679
 C          1.8511930789        0.5445869140       -0.0407221258
 C          0.5830258235        0.0339897765        0.1353773160
 C         -0.5276017935        0.8442288383        0.7745662380
 C         -0.2851711446        2.3279512292        0.5693659106
 C         -0.1567925299        3.2228316600        1.6209255550
 C          0.0715962166        4.5671995459        1.3736819528
 C          0.1730139276        5.0326489688        0.0753324202
 C          0.0405941647        4.1455732754       -0.9813759803
 C         -0.1872988548        2.8055698354       -0.7353395156
 C         -0.5669218519        0.4792971621        2.2619853024
 C          0.6116387257        0.2325446362        2.9573634945
 C          0.5851158025       -0.0962389784        4.3007262146
 C         -0.6207737004       -0.1837096415        4.9746580409
 C         -1.7981449807        0.0692340361        4.2933996381
 C         -1.7718235232        0.3991329459        2.9493385066
 H         -7.4873883908       -1.8082419026       -0.5571703231
 H         -5.9703489667       -2.6587254780       -0.2405713150
 H         -6.4351229315       -1.2769782646        0.7586263759
 H         -5.2597953059       -2.2754239841       -2.6658414367
 H         -6.7736582622       -1.4187365458       -2.9786034894
 H         -5.2284007484       -0.6312567874       -3.3147299171
 H         -8.3335123880        0.3561896718       -1.8148389441
 H         -8.9052251836        2.7449089213       -1.6055990390
 H         -7.2324937650        4.3710521653       -0.8493756797
 H         -4.9389750688        3.6422410544       -0.2832109205
 H         -2.7437795969        2.3701612218        0.2276333830
 H         -3.4183942399       -2.4275400797       -0.8265465306
 H         -1.4383559804       -3.3506877428        1.9591030201
 H         -1.8846481187       -5.7859028645        1.8989380628
 H         -1.8932473346       -6.9804435622       -0.2589987957
 H         -1.4581510510       -5.7505751638       -2.3515263988
 H         -1.0147701924       -3.3189034360       -2.2846954952
 H          1.2356148248       -3.1838964341       -0.7133729132
 H          3.4809758951       -2.2608559048       -0.9699591200
 H          3.5120846665        2.2550483123       -1.2217967463
 H          5.6862027886        3.2762629968       -1.5720278648
 H          2.0336631650        1.5782608773        0.2106409436
 H         -0.2344375841        2.8744944288        2.6396925615
 H          0.1707836334        5.2521597071        2.2031153336
 H          0.3526786159        6.0804394791       -0.1143137535
 H          0.1149067105        4.5006832995       -1.9990166940
 H         -0.2912770947        2.1143982853       -1.5597398512
 H          1.5614053523        0.2979667573        2.4485027474
 H          1.5123198071       -0.2850292233        4.8219389986
 H         -0.6418514298       -0.4437544585        6.0225258154
 H         -2.7458550657        0.0111300480        4.8088441513
 H         -2.7008759851        0.5979585861        2.4368918105
