84
 energy: -131.923531963838 gnorm: 0.000096739509 xtb: 6.7.1 (edcfbbe)
C           -6.44993629104688       -1.72578212562096       -0.08642651622791
C           -5.76937664931270       -0.78872949880754       -1.09087358896675
C           -5.85272773026203       -1.37002971998476       -2.50648422641877
C           -6.36102217205699        0.60279654669807       -1.03237163766146
C           -7.64928549781591        1.00851492625546       -1.30527340034640
C           -7.96581560007781        2.35688368329975       -1.19129973653128
C           -7.00754144811188        3.28560475865408       -0.80712668830738
C           -5.71131843243734        2.88962083126503       -0.52697023773981
C           -5.39112659228434        1.54316232871223       -0.64079506426190
C           -4.14205045186356        0.84870801253671       -0.42427856508468
C           -2.90268021029818        1.31237106823200       -0.00519518120538
C           -1.84301462443858        0.43023519755094        0.11565957960530
C           -2.02599571321621       -0.92958056910002       -0.20966876921431
C           -3.29510112677331       -1.40304531502422       -0.58964564787755
C           -4.33643052798988       -0.52050013069492       -0.69253408575234
N           -0.95036755571606       -1.78751486615977       -0.19885075212075
C           -1.18227194976295       -3.18986539307693       -0.33491909755174
C           -1.40525461729057       -3.94307117999757        0.80946878140659
C           -1.63915813537522       -5.30307846606985        0.69525822045931
C           -1.65097857461371       -5.90545394491995       -0.55208627457430
C           -1.42709352259554       -5.14913095441294       -1.69168124518197
C           -1.19262362178693       -3.78904677515807       -1.58866756551416
C            0.33550079566121       -1.31490900454848       -0.19071073369237
C            1.42153865926904       -2.14672833137448       -0.52063089817986
C            2.68973737806086       -1.64510576815381       -0.61360687646691
C            2.96103961036106       -0.27406708460897       -0.39184950351651
C            4.27874970404065        0.26843100586587       -0.54030399063918
C            4.48962519376849        1.67348066559912       -0.64512696791650
C            5.72349272083192        2.24337697193396       -0.77884773549939
C            6.90309438112179        1.46026598742935       -0.80920722001428
C            8.15485598149836        2.05615138123980       -0.92640825284072
N            9.17952144776833        2.58010355040704       -1.02430524441331
C            6.75905798143786        0.06022168425326       -0.72327430301933
N            7.74804915607684       -0.82478091013167       -0.73892915885876
S            7.10123288522702       -2.32482398854431       -0.61621591195334
N            5.51883193881949       -1.86421777544964       -0.53462480889553
C            5.44854726841713       -0.54040641758302       -0.60499329356337
C            1.86997483517752        0.52920040189880        0.00868343233137
C            0.59260708881004        0.03719436728589        0.12259293437175
C           -0.52501972522936        0.86644845653793        0.71736513930653
C           -0.28341174908091        2.34407291329754        0.44719890315050
C           -0.11844552250552        3.27999054011818        1.45735625027598
C            0.10833874535476        4.61208782904663        1.14802580757767
C            0.16978125061724        5.02324866610192       -0.17146931508709
C            0.00431039015844        4.09369900379137       -1.18642376122885
C           -0.21964643348017        2.76522500595905       -0.87890880834479
C           -0.57613373042633        0.57046914880766        2.22809460717288
C            0.58230081181016        0.26239761060196        2.93285481127271
C            0.53778540931329        0.01141552442555        4.29358062530160
C           -0.66518409461313        0.06204972860361        4.97608747956913
C           -1.82220502248900        0.37606365193570        4.28486963540203
C           -1.77847716610166        0.62786488696536        2.92438691768034
H           -7.49848287019780       -1.85256505634681       -0.34323852064934
H           -5.96814859163608       -2.70035331474744       -0.09539468463248
H           -6.38557190325225       -1.31390114043759        0.91863088302833
H           -5.36384192416131       -2.34030619061662       -2.54453163482916
H           -6.89183148305869       -1.49241263373017       -2.80099460777613
H           -5.36652008714291       -0.70518255691230       -3.21752901254240
H           -8.40567088690076        0.29866848896913       -1.60565088966832
H           -8.97147837482102        2.68821692444180       -1.40553148620192
H           -7.27868776175329        4.32830775241001       -0.72702826840250
H           -4.96530588800074        3.61141425132002       -0.22934490515823
H           -2.76292622641266        2.35437014307926        0.23775806115756
H           -3.43083392524596       -2.44900561720341       -0.81203663180129
H           -1.39238122660628       -3.46139123511600        1.77594156681151
H           -1.81153130959977       -5.89111642147351        1.58373242792652
H           -1.83363522919671       -6.96583460404319       -0.63683881465490
H           -1.43469878675586       -5.61744751594834       -2.66422958841127
H           -1.01733600408555       -3.18933410376640       -2.46961385103033
H            1.24885704279240       -3.19258919152261       -0.71972589366882
H            3.50991377490086       -2.29338623847046       -0.87300828374193
H            3.63157552956117        2.32659963228321       -0.65781418561075
H            5.82361592064568        3.31568348125004       -0.86784107537118
H            2.04114486083829        1.55821448636076        0.28115207718162
H           -0.16203211229236        2.97473280929229        2.49205385082362
H            0.23832936238198        5.32918308136255        1.94562397511705
H            0.34815237714628        6.06155613225836       -0.40988694634918
H            0.05306667524052        4.40510872709777       -2.21978417157279
H           -0.34352073656788        2.04223722180446       -1.67292451705361
H            1.53464635462576        0.22184218425240        2.42620430231636
H            1.45202313662740       -0.22432762322453        4.81881904409988
H           -0.69893661155053       -0.13715544699809        6.03698897886754
H           -2.76771321990262        0.42764184207967        4.80470643695739
H           -2.69349513524831        0.87817219048300        2.41010970095673
