84
 energy: -131.956372419657 gnorm: 0.000086904575 xtb: 6.7.1 (edcfbbe)
C           -5.61511374638409       -0.51090247692527       -0.53950102866777
C           -4.59817706503835        0.22998158483113       -1.41455881165863
C           -4.60685530099355       -0.33570762639131       -2.83882690324565
C           -4.85636030728554        1.72127654587380       -1.41842730444273
C           -5.96975638317998        2.40534171666355       -1.85614426872878
C           -5.98689470901683        3.79134697017132       -1.76079959284687
C           -4.90412177043857        4.47949648217468       -1.23521399905002
C           -3.78021387298598        3.80026087747812       -0.79235790252888
C           -3.76028574360929        2.41792714067479       -0.88610249342305
C           -2.74574200403324        1.45225684732479       -0.50064397111738
C           -1.51433704556270        1.63122727169533        0.11186242074924
C           -0.75454112093631        0.51788037479512        0.42660258028963
C           -1.15478972621005       -0.74819593524557       -0.04184363608318
C           -2.41395927312409       -0.93420874454986       -0.61055473246358
C           -3.21434501971462        0.16723936303302       -0.80878772261156
N           -0.20492586826884       -1.77313802725264       -0.02563683441897
C           -0.62113686900094       -3.11677811802670       -0.24025375683418
C           -0.92123603787344       -3.89644899504869        0.86835049333544
C           -1.33553164810814       -5.20610816543382        0.69573457447815
C           -1.44953416839596       -5.73762752050120       -0.57838120731881
C           -1.15533680312937       -4.95674822787223       -1.68446128989964
C           -0.74338320936253       -3.64559435533453       -1.52023879093593
C            1.10159685810332       -1.38816979543476       -0.24817664096218
C            2.02232043102306       -2.16460220414948       -0.95139448437814
C            3.22431192792776       -1.62040350855653       -1.34427476283080
C            3.51597638586892       -0.27339493051867       -1.10354751351719
C            4.71788861611990        0.34881806772420       -1.63677647565829
C            4.76774448523365        1.70182717578841       -1.94305781111492
C            5.89967685109178        2.32816536263403       -2.46266188261537
C            7.07254744690497        1.63401361311056       -2.70939955251928
C            8.21003890343980        2.26863562671626       -3.23657998670021
N            9.13127145149765        2.80281393698258       -3.66823435773282
C            7.08544381505222        0.25167503672462       -2.41080637248581
N            8.10419187653581       -0.59286702810393       -2.55671201118573
S            7.63563351512323       -2.05176154063635       -2.06447449289393
N            6.12767384806949       -1.68411865094255       -1.65027329045407
C            5.90845088661059       -0.38905240864696       -1.88056172938398
C            2.62864495701186        0.46689970588581       -0.30989713783796
C            1.48963937635533       -0.10736735742504        0.20615689317374
C            0.53397873777690        0.47748704458463        1.22598310085069
C            0.95463392454796        1.71916938475802        1.98949152209084
C            0.00359589719751        2.56229388580933        2.55936712749426
C            0.37928263777333        3.65185438645781        3.32514400351293
C            1.71642788829466        3.90681931775532        3.57287818817026
C            2.66724037681008        3.02560687586469        3.08963769024643
C            2.28908705709414        1.93669735730403        2.32381666301519
C            0.36521916324996       -0.53459156907511        2.37260345772841
C            1.44483055688634       -1.28906208119092        2.81394425000654
C            1.30612409167478       -2.16120589857256        3.87918226473174
C            0.08772346085908       -2.28478499581883        4.52524951111814
C           -0.98938612339640       -1.52550665998769        4.10007012974173
C           -0.85051227643548       -0.65436538879499        3.03384413053537
H           -6.61504954994752       -0.40813167760812       -0.95416116092749
H           -5.36535036098161       -1.56814532898858       -0.48654739432404
H           -5.61383523220185       -0.10172712749409        0.46893590799994
H           -4.35982081927038       -1.39467602704143       -2.82555318542870
H           -5.58996673667039       -0.21263804624870       -3.28681846089961
H           -3.87661789235267        0.18555957379687       -3.45493443069463
H           -6.81998942475187        1.88056447348429       -2.26753118808868
H           -6.85442236616662        4.33952251339204       -2.09951703794921
H           -4.93809585898693        5.55785510736550       -1.17007912845699
H           -2.93861386011571        4.33984937635989       -0.38278994336544
H           -1.16202856590626        2.62457305129867        0.33825621264766
H           -2.73189960430501       -1.91984227334331       -0.91309571161071
H           -0.82654346725001       -3.46798788162197        1.85484205537137
H           -1.56749079700064       -5.81202503674970        1.55887634474507
H           -1.77013057497474       -6.76019670569617       -0.71070251967119
H           -1.24916411163625       -5.36780126141964       -2.67883952337314
H           -0.52162708044090       -3.02653970984257       -2.37785711915589
H            1.78167432787285       -3.18275244096467       -1.21430169658578
H            3.92606793190492       -2.22280789847366       -1.89717111960673
H            3.88297908136567        2.30236701594760       -1.79968970876545
H            5.86312852137857        3.38431841369273       -2.68740391863423
H            2.86847564196494        1.48863606103959       -0.06479058250802
H           -1.04766681303439        2.35824685630057        2.43530907017863
H           -0.38149214450104        4.29676532132026        3.74137510918046
H            2.01174057249103        4.76155007225547        4.16365251476601
H            3.71252564362219        3.17621266019984        3.31958641660731
H            3.04913755134152        1.23676105977251        2.01569077693966
H            2.40074391778909       -1.20426833198725        2.31792317069626
H            2.15411136661403       -2.74663148092102        4.20411066884305
H           -0.02115334764812       -2.96726274485259        5.35547876634035
H           -1.94426528122229       -1.61179193452483        4.59852824937795
H           -1.70008199866490       -0.07185639080575        2.70885931358237
