84
 energy: -131.974985640824 gnorm: 0.000079542686 xtb: 6.7.1 (edcfbbe)
C           -6.44732275602162       -1.69933830001311       -0.15067157804842
C           -5.74459079517464       -0.76364263662244       -1.14063404373190
C           -5.80424589959162       -1.34370388901623       -2.55758692633323
C           -6.33436060333557        0.62976388965581       -1.09183390347385
C           -7.61544844109944        1.03853833421738       -1.39335851301164
C           -7.93381093654427        2.38649468384419       -1.28251424642087
C           -6.98280484301712        3.30912451086940       -0.87406532991963
C           -5.69247448848453        2.90760358323121       -0.56687841105028
C           -5.37211895925265        1.56402349019779       -0.67741906861946
C           -4.12426980455520        0.86118316984957       -0.43904696706521
C           -2.89332244834316        1.31471686291211        0.00362738393204
C           -1.84178987637987        0.42159729511764        0.14921830789862
C           -2.02641318691199       -0.92919291790829       -0.17445419549667
C           -3.28071916731536       -1.39100432364392       -0.58881455255706
C           -4.31834450987729       -0.49974735255887       -0.71367391916297
N           -0.94670488395486       -1.80421093482240       -0.12088261723898
C           -1.18340008246039       -3.20364442021681       -0.25730335411808
C           -1.41113993902462       -3.95732684774575        0.88561268338223
C           -1.65147678728198       -5.31654297711451        0.77463493466519
C           -1.66391677869063       -5.92133520502692       -0.47136405264287
C           -1.43580334524282       -5.16734931910015       -1.61157187729013
C           -1.19658366045477       -3.80819834663959       -1.50903014145363
C            0.33761087471498       -1.31842896496191       -0.16898822582678
C            1.41340591172440       -2.13581241093660       -0.53651579969106
C            2.68256875816421       -1.62276318827548       -0.65591705679109
C            2.93287906133682       -0.26492175200189       -0.43126628366527
C            4.25602721799986        0.30833615401687       -0.61203401351721
C            4.43435408186115        1.64111596805575       -0.95958330968860
C            5.68676023621917        2.22047611523933       -1.15362345105170
C            6.85960448460160        1.49740583020974       -1.00767351342914
C            8.11915354772514        2.08517967406190       -1.21165657107811
N            9.14121349357633        2.58146105845861       -1.38419737923420
C            6.74299655641404        0.13520062151256       -0.64607640677954
N            7.73420492379781       -0.72892568695978       -0.43851181106346
S            7.09821634684786       -2.15035930230086       -0.03005180157331
N            5.54618855141254       -1.73969860728404       -0.10198844855644
C            5.44339405784712       -0.45817859318241       -0.45499198275392
C            1.86195407255619        0.53412212046897       -0.01286492956810
C            0.58866904035099        0.02894544754623        0.14208096079206
C           -0.52326941060871        0.84890912634295        0.76727299956616
C           -0.28333857391924        2.32924643658252        0.51979468313731
C           -0.11654235394810        3.24937524006952        1.54451902319900
C            0.10190130951287        4.58801129254440        1.25831828651583
C            0.15421459585169        5.02351452529403       -0.05363043951291
C           -0.01159730166930        4.11081250767401       -1.08381100840184
C           -0.22719562883327        2.77611000992729       -0.79851890361163
C           -0.57018215766020        0.52915062761626        2.26710519968758
C            0.58694394496069        0.19753745834818        2.96322161967359
C            0.54396559073748       -0.08302928348180        4.31798126956518
C           -0.65724391515098       -0.03678201055488        5.00397105124946
C           -1.81385537550845        0.29966887440612        4.32221021637736
C           -1.77037952131488        0.58013410849863        2.96756606599430
H           -7.49089574633206       -1.82638909863887       -0.42839175359360
H           -5.96489476604215       -2.67404862665494       -0.14729629022143
H           -6.40294458930285       -1.28570814612418        0.85498682921644
H           -5.31274112462743       -2.31331115285420       -2.58854286835096
H           -6.83808461317623       -1.46689307099253       -2.87102522964869
H           -5.30586638164610       -0.67693213522366       -3.25864196978410
H           -8.36587262408475        0.32987357200554       -1.71299885244643
H           -8.93441114420023        2.72011121634859       -1.51775859584732
H           -7.25154897865097        4.35311799716613       -0.79556542758162
H           -4.95202350358588        3.62806248677249       -0.25048309407448
H           -2.75233533933652        2.35605915546204        0.25162293379929
H           -3.42101603583323       -2.43686707982305       -0.81217075085823
H           -1.39948939085772       -3.47304260926535        1.85114012656202
H           -1.82906124781473       -5.90297692965602        1.66365110901775
H           -1.85172668186513       -6.98128301357386       -0.55483517700853
H           -1.44586976631979       -5.63754676391631       -2.58372071525547
H           -1.02114403377654       -3.20995107808943       -2.39151146647540
H            1.24274627440264       -3.18186239517482       -0.73697738885336
H            3.49281237809038       -2.26994289634181       -0.94898756695446
H            3.56514329756039        2.26107014885590       -1.11444829260435
H            5.74946249546947        3.26189237337144       -1.43440772462715
H            2.04359664931011        1.56501435521222        0.25080716419560
H           -0.15554889937779        2.92546013495990        2.57396486323209
H            0.23046762023928        5.29171686651577        2.06828244929694
H            0.32335265870819        6.06743213040610       -0.27434210578466
H            0.02749730077197        4.44112355591567       -2.11196627568475
H           -0.35584410628126        2.06645387159476       -1.60401029436274
H            1.53578575417085        0.15890971303230        2.44923972666090
H            1.45641780676544       -0.33855361645517        4.83755498105289
H           -0.69102504327426       -0.25788820086424        6.06080343093897
H           -2.75812773398708        0.34571219381998        4.84550572922926
H           -2.68336796107228        0.84428559556957        2.45539910222359
