84
 energy: -131.923516660048 gnorm: 0.000112427026 xtb: 6.7.1 (edcfbbe)
C           -6.41857424308995       -1.80961784011635       -0.04907371221858
C           -5.74107163835566       -0.91864230290826       -1.09653031133066
C           -5.79723802293857       -1.58020917815626       -2.47801658568236
C           -6.35735106736468        0.46306652897899       -1.12553886821628
C           -7.65132173735516        0.82807733328729       -1.42749746103814
C           -7.99359090090828        2.17442693118109       -1.39217519484387
C           -7.05454439426634        3.14175096614847       -1.05918189223603
C           -5.75244979646715        2.78713311851139       -0.75205467935041
C           -5.40700183827153        1.44266399042184       -0.78594645443602
C           -4.14850800964620        0.78477542564197       -0.51598886924185
C           -2.92211392200554        1.29489308377065       -0.11373968769620
C           -1.85299131956324        0.43898959673783        0.08695562999351
C           -2.01383451115950       -0.94396171198724       -0.13632811535139
C           -3.26791266401398       -1.46009875495937       -0.51070197660222
C           -4.31830038977007       -0.60209614293260       -0.69652636803935
N           -0.93258205629895       -1.78795289772625       -0.02512975551445
C           -1.15241999077124       -3.19865158969580       -0.05747968456429
C           -1.43066598806287       -3.85953261384367        1.13107202478498
C           -1.65279505208476       -5.22620801086806        1.11528152618629
C           -1.59866439033339       -5.92718287265284       -0.07826432812318
C           -1.32095601384388       -5.26278907811671       -1.26241958097744
C           -1.09736590762792       -3.89702910011942       -1.25765635509469
C            0.34928297447711       -1.30529558532524       -0.01911477899640
C            1.45079845701053       -2.15458921262596       -0.23333914576587
C            2.71717748815774       -1.65155028190734       -0.34125821027655
C            2.96963749845006       -0.26173075502941       -0.25848947322812
C            4.28473708275520        0.27855814311893       -0.43486205411729
C            4.48324633872691        1.66575859484222       -0.69120781676219
C            5.71409179556941        2.23372270212395       -0.85740694161610
C            6.90236184948058        1.46820527738381       -0.76863668994497
C            8.15039597789322        2.06258735178031       -0.92590101319919
N            9.17187943640757        2.58502071942044       -1.05886455020044
C            6.77112027837012        0.08542097125993       -0.52577066491048
N            7.76964045666248       -0.78140563108671       -0.41149553032197
S            7.13567824695420       -2.26679703162826       -0.13689512640539
N            5.54653464954682       -1.82271730631377       -0.15541246709317
C            5.46426171745983       -0.51642765106871       -0.37700143843143
C            1.86216880025339        0.56594022854959        0.03215652033715
C            0.58742276000161        0.07340470493939        0.17005540692415
C           -0.54927696000719        0.94190382789836        0.66602720466430
C           -0.32789579548826        2.39268180716252        0.26432391558961
C           -0.26143914950800        3.42984247319912        1.18287960095027
C           -0.05962715965020        4.73273838100934        0.75479136454608
C            0.07349659318251        5.01370454368702       -0.59328855910954
C            0.00145035713728        3.98325145111458       -1.51759163261773
C           -0.19872327524844        2.68401941231008       -1.09150197493958
C           -0.59888731773023        0.78142661897419        2.19685392670258
C            0.57976581211301        0.73187288907310        2.93389937454584
C            0.54992915322663        0.60002040289447        4.31098932807204
C           -0.65961657040414        0.51366666906576        4.97915048477854
C           -1.83741705438081        0.56999417808857        4.25562315252533
C           -1.80824467365920        0.70338774779404        2.87741566804470
H           -7.46162080196115       -1.96855290554401       -0.31035298225674
H           -5.92095756028932       -2.77487050353955        0.00235658799215
H           -6.37376507198415       -1.34082200178743        0.93181884435815
H           -5.28781419105620       -2.54040475864113       -2.45698329399968
H           -6.83062954021849       -1.74089869030052       -2.77434841755562
H           -5.31846940971553       -0.94619443007238       -3.22150534270308
H           -8.39288257109285        0.08784844008544       -1.68888479165860
H           -9.00443269888700        2.47372760781069       -1.62822760822479
H           -7.34552052122008        4.18198221868608       -1.04012252446391
H           -5.02141307812337        3.53880089350018       -0.49393925384388
H           -2.80107617546451        2.35261083132500        0.06075661275381
H           -3.38577561369554       -2.52102511981928       -0.66073443880004
H           -1.46843534734369       -3.30261381723899        2.05542060771726
H           -1.86727166579235       -5.74224988671832        2.03862420769835
H           -1.77167083148490       -6.99254815232311       -0.08649551489540
H           -1.27814795090030       -5.80736546725307       -2.19339593736870
H           -0.88123911481401       -3.36886011296746       -2.17450503289755
H            1.29211418861745       -3.21705171967587       -0.32971438619876
H            3.54979047061495       -2.31387241774622       -0.50950106658541
H            3.61885204018223        2.30150055963340       -0.79945293077938
H            5.80518859862188        3.29029141048014       -1.06505082713946
H            2.01818360045300        1.62064131712181        0.19332754415465
H           -0.36449730517300        3.22761279739136        2.23841226920713
H           -0.00606713478931        5.53013443825390        1.48182209898914
H            0.23317233484943        6.02954061541725       -0.92386896442736
H            0.10378403095251        4.19301597306778       -2.57245346060525
H           -0.25085011491628        1.88245782339437       -1.81478077720044
H            1.53508571812737        0.80056544019927        2.43600168535872
H            1.47922545934180        0.56541124384117        4.86093617248542
H           -0.68189405825012        0.40708524774521        6.05363482171635
H           -2.78932267621994        0.51213054562246        4.76311624088576
H           -2.74193230211281        0.75329679677633        2.33894606153224
