90
 energy: -140.311465900027 gnorm: 0.000056024050 xtb: 6.7.1 (edcfbbe)
N           -2.07775932435945       -8.48705217224543       -0.17442771860394
C           -1.16595748673610       -7.78935023947608       -0.16730818937238
C            0.00013704282486       -6.99630558858005       -0.15840053562399
C            1.16628468570106       -7.78927475015666       -0.16710305213013
N            2.07813532540994       -8.48691048813428       -0.17442086858228
C            0.00009276013561       -5.62807793249145       -0.14232158323210
C           -1.16651905883906       -4.75602692650793       -0.12998884611146
C           -2.52418789499704       -5.03475368569234       -0.12855306018693
C           -3.42282221153897       -3.98105946520713       -0.10505535186767
C           -2.99976236837133       -2.65092210351553       -0.08833119067541
C           -3.97488107907450       -1.55951928532043       -0.05965486750614
C           -5.14643036516910       -1.66232091944539        0.69210838457379
C           -6.06000319767562       -0.63272954796715        0.73197038103310
C           -5.84302738049723        0.53873561547965        0.00206393715064
N           -6.76743696311368        1.57903194362031        0.03492471441669
C           -8.13670206225732        1.30403676721062        0.16015091769685
C           -8.94834943047424        2.11734822692789        0.94965068750323
C          -10.29857032740357        1.84918105545187        1.06476278195626
C          -10.85771938893278        0.76732005157496        0.40455050160262
C          -10.05462065775866       -0.04488800364791       -0.37924656411206
C           -8.70486054334072        0.21980739730906       -0.50726232838497
C           -6.33911955466319        2.91062780446283       -0.04984293880409
C           -7.08518031797940        3.84532191627322       -0.76671293442695
C           -6.66651091385342        5.15956879513719       -0.84111156684683
C           -5.49919670544292        5.56092520444693       -0.21239010778723
C           -4.75344458086045        4.63547802804994        0.49915338904486
C           -5.16824987077527        3.32077235757729        0.58670769436750
C           -4.67727843877868        0.64263331830813       -0.76088381213193
C           -3.75961182380543       -0.38410314221586       -0.78090025267364
C           -1.62694127645982       -2.37096585244056       -0.09596418594495
C           -0.72886930001337       -3.41183464031229       -0.11258598463272
C            0.72892717223137       -3.41178924286192       -0.11255592639468
C            1.62694150913097       -2.37086772248727       -0.09592113060834
C            2.99977251169093       -2.65075437736639       -0.08820481079634
C            3.97485811880109       -1.55931865665325       -0.05949964269203
C            5.14626571691405       -1.66204582954543        0.69249032925466
C            6.05984833554523       -0.63246701022506        0.73238401069316
C            5.84303097648939        0.53889208408033        0.00226631454438
N            6.76748367228202        1.57916778750609        0.03510959353150
C            6.33910940604671        2.91075057447985       -0.04959901512600
C            5.16825433171073        3.32079085030369        0.58704845014266
C            4.75334395545782        4.63546791949900        0.49957218273538
C            5.49898339494048        5.56099496604895       -0.21198538696188
C            6.66628094073815        5.15974297555950       -0.84080490237526
C            7.08504709311294        3.84552068348084       -0.76649551274268
C            8.13672471247266        1.30410893884659        0.16032318659162
C            8.94854561725403        2.11763553588804        0.94942716323841
C           10.29873544163051        1.84932142290482        1.06456915273518
C           10.85769427627740        0.76709030048789        0.40480469343567
C           10.05443027138553       -0.04532705586987       -0.37860522985111
C            8.70470816854073        0.21952467287303       -0.50667355954578
C            4.67740596560752        0.64273294146513       -0.76087483501232
C            3.75971356256121       -0.38398577565293       -0.78091387991180
C            3.42291058868465       -3.98086626231670       -0.10489267770723
C            2.52433654795194       -5.03461053960142       -0.12841955748765
C            1.16665441097121       -4.75595634089970       -0.12993129488328
H           -2.88908290407748       -6.04924477595508       -0.14814966068765
H           -4.48069648825275       -4.19550747655566       -0.12262842874093
H           -5.32373849945592       -2.54802977829580        1.28388280004157
H           -6.94875327174557       -0.72240581175511        1.33899036645225
H           -8.51194155398755        2.95632320608477        1.47175487604670
H          -10.91652690987872        2.48516093023711        1.68124574895807
H          -11.91244553250176        0.55897903036856        0.49960278735630
H          -10.48359140107207       -0.88653420793010       -0.90270878720646
H           -8.08213969760912       -0.40776287679171       -1.12800442002398
H           -7.99126408277936        3.53224022746934       -1.26448292409699
H           -7.25234521635442        5.87349066828068       -1.40100917981029
H           -5.17359680739079        6.58804862804915       -0.27542719383674
H           -3.84579080362347        4.94113899502771        0.99852235871018
H           -4.59204733458110        2.60356149823992        1.15292884188754
H           -4.50365385837010        1.53418362617383       -1.34537754404477
H           -2.87773642516780       -0.29036562303013       -1.39745783003746
H           -1.28316732896022       -1.34802582176218       -0.06187976806751
H            1.28312159988737       -1.34793922415079       -0.06193245839506
H            5.32342570546026       -2.54767234454608        1.28443220210730
H            6.94847709497721       -0.72206867321904        1.33959150934930
H            4.59214291783256        2.60351570948759        1.15328136700165
H            3.84570652540101        4.94104502195989        0.99902234237828
H            5.17330834630745        6.58809851290888       -0.27495867707091
H            7.25201667112191        5.87372688970685       -1.40072631564986
H            7.99111675315208        3.53252377831428       -1.26434391622463
H            8.51230501613895        2.95688869604912        1.47122299951150
H           10.91681954362060        2.48548733240248        1.68073296640916
H           11.91238939211738        0.55861680871025        0.49991255025899
H           10.48323477847422       -0.88728221890544       -0.90170766071818
H            8.08187956205144       -0.40821681912878       -1.12713360035844
H            4.50390804759547        1.53421765496926       -1.34550752520011
H            2.87793701916573       -0.29030853420435       -1.39762336408156
H            4.48079879940679       -4.19525169930019       -0.12238921690916
H            2.88928935365595       -6.04908290755569       -0.14787340980908
