90
 energy: -140.258466677953 gnorm: 0.000090625721 xtb: 6.7.1 (edcfbbe)
N           -2.09307771254710       -7.94009236510569       -0.15456030352230
C           -1.16375249291070       -7.25762745820264       -0.08138639417037
C           -0.00576528042758       -6.49167938632920        0.00640688744398
C            1.15023789993510       -7.26041923833431        0.09590532309181
N            2.07792202940112       -7.94490031002777        0.17094436321771
C           -0.00390025000174       -5.06233701023466        0.00459087190500
C           -1.15297594014948       -4.21703355118690        0.00335299013394
C           -2.52396587969755       -4.49365562087816        0.00482216167319
C           -3.41960078934296       -3.45104813571632       -0.00800472681658
C           -3.00378483796253       -2.10468830061178       -0.00487825290134
C           -3.98602995756452       -1.03139502537213       -0.01073639402056
C           -5.21017336737123       -1.17221089771286       -0.67765345003736
C           -6.14342953401064       -0.16281974825948       -0.68247755310923
C           -5.89618013939990        1.03751784585957       -0.00830078905907
N           -6.84539322627432        2.05630181564200       -0.00141969718936
C           -8.21013055471122        1.74290031154151        0.01056907586895
C           -8.67967533218430        0.66224870563880        0.75772162331803
C          -10.02653514767187        0.35696854786784        0.76434378301484
C          -10.92296666779195        1.12239675620665        0.03582338247765
C          -10.46148262192519        2.19909430102606       -0.70442995578076
C           -9.11592764031444        2.50993832631514       -0.72247798730146
C           -6.44349635852518        3.39627917260677       -0.00512548849867
C           -5.33100373872275        3.79878623804150       -0.74503293430795
C           -4.94011361317592        5.12332567262611       -0.74486096840604
C           -5.65008884366425        6.06467108361348       -0.01687711407219
C           -6.75783242832528        5.67028246446495        0.71636949529655
C           -7.15418046562073        4.34747041086158        0.72782140687813
C           -4.67719347672918        1.18990877217682        0.66025262413023
C           -3.74524505284690        0.17876006006422        0.65269635826740
C           -1.63174078291126       -1.82005384273790        0.00811569981119
C           -0.72221987955032       -2.85161034046532        0.00504639532084
C            0.71992612563505       -2.85344987872828       -0.00147032131651
C            1.63202079569142       -1.82419931144267       -0.00712832614693
C            3.00334795808036       -2.11221432760860        0.00670677686701
C            3.98785208996019       -1.04097075851866        0.01015962668316
C            5.21115000474578       -1.18198422397153        0.67853679035951
C            6.14562554566198       -0.17365430876733        0.68238075095700
C            5.90042413498946        1.02561106981094        0.00560029777076
N            6.84969630234541        2.04437496771359       -0.00122910829390
C            6.44656861681803        3.38410050977778        0.00018606788461
C            5.33381982343320        3.78660237824835        0.73969195987562
C            4.94121229758737        5.11062496234939        0.73709346053821
C            5.64974313835852        6.05142161053140        0.00699441029027
C            6.75777633788066        5.65703710517563       -0.72581563947907
C            7.15586356222164        4.33470933212316       -0.73479208405532
C            8.21454863574056        1.73200278154245       -0.01039464786023
C            9.11887650241487        2.50274875998064        0.72064216476888
C           10.46474706472516        2.19320229527153        0.70522392658776
C           10.92810592416473        1.11403682947387       -0.03024970295880
C           10.03317510275994        0.34485404424064       -0.75665105485526
C            8.68601788414608        0.64886391152126       -0.75276223264788
C            4.68271392867698        1.17772178055189       -0.66535928973022
C            3.74954895811036        0.16775736648939       -0.65675155414527
C            3.41586833458323       -3.45953519903831        0.01340816867777
C            2.51760872143491       -4.49994207284362        0.00310704204636
C            1.14730897283110       -4.21991347598647        0.00370555571089
H           -2.88164725979210       -5.51090170447038        0.01809812955803
H           -4.47667321464669       -3.66992207659748        0.01768618970502
H           -5.41207951255293       -2.07568201877854       -1.23230794693235
H           -7.06998634377936       -0.28431580055161       -1.22433402767911
H           -7.98314300069780        0.07379632124390        1.33649936487029
H          -10.37926303936568       -0.47941039157070        1.34892176711927
H          -11.97478278448932        0.88143794008865        0.04507288980685
H          -11.15315704680331        2.79670808456407       -1.27916347445188
H           -8.75512974983937        3.34171485564332       -1.30957247022371
H           -4.78627713808724        3.06831477631416       -1.32484500179779
H           -4.08026231519396        5.42403633810348       -1.32472816777088
H           -5.34272802203461        7.09912709344778       -0.02159240977269
H           -7.31319835882864        6.39682772905583        1.29045902575491
H           -8.01043229388551        4.03897514371125        1.30936934231625
H           -4.48183362883141        2.10307355497332        1.20355097839957
H           -2.82754023238482        0.30780554395503        1.20633115802573
H           -1.29087944347740       -0.79499752483917       -0.01590711841706
H            1.29373499199809       -0.79823403333134        0.01428477767959
H            5.41130347800807       -2.08456667720955        1.23528399435390
H            7.07134955838777       -0.29505865895638        1.22568206308049
H            4.79016341019047        3.05648818308209        1.32096196326286
H            4.08116182354592        5.41135484800191        1.31665499120290
H            5.34100400124389        7.08547541845482        0.00972314042464
H            7.31197278152343        6.38318218017526       -1.30153624423767
H            8.01235467470729        4.02613919628762       -1.31595224835140
H            8.75669862106434        3.33645318508999        1.30413753152330
H           11.15520656307039        2.79382395460967        1.27828226346601
H           11.98017187431693        0.87410117027663       -0.03744003943176
H           10.38734388950905       -0.49351248320109       -1.33750308265782
H            7.99077269381870        0.05749063271261       -1.33010143036332
H            4.48921162180332        2.08988673019138       -1.21099526156535
H            2.83277679248475        0.29655053301353       -1.21198275805070
H            4.47241710258217       -3.68104207354933       -0.01146421535868
H            2.87272705136985       -5.51811955328895       -0.00751643647753
