  106
       -158.49784095
 C          0.4001754889        2.0415651295        4.3766546468
 C         -0.2939107348        0.9363328753        4.8392014240
 C         -1.3655616766        0.4371547514        4.1230019615
 C         -1.7664085903        1.0400366945        2.9338773998
 C         -2.8563150054        0.4825848563        2.1198538449
 C         -3.7210220724        1.3126111127        1.4143227083
 C         -4.6855602215        0.7824512908        0.5663169659
 C         -5.5846025407        1.6668175040       -0.1898029646
 C         -6.9368132988        1.3650714323       -0.3256243343
 C         -7.7736695384        2.1951199780       -1.0483935259
 C         -7.2707554587        3.3346862195       -1.6535144273
 C         -5.9257276743        3.6409279071       -1.5293949858
 C         -5.0890306656        2.8156600904       -0.8016207209
 C         -4.7443619678       -0.5949031536        0.3837175923
 C         -3.8628592200       -1.4381392027        1.0492043987
 C         -3.8040729436       -2.8631350536        0.6712971597
 C         -4.9669055384       -3.6202045539        0.5952374124
 C         -4.9341427367       -4.9427139051        0.1904731226
 C         -3.7276228707       -5.5264397938       -0.1554579346
 C         -2.5610908293       -4.7868681472       -0.0821705148
 C         -2.5782060455       -3.4573895076        0.3234498414
 C         -1.3160795800       -2.7085562354        0.4649273472
 C         -0.3396929293       -3.2188676582        1.3161450048
 C          0.7605563122       -2.4679718531        1.6760467526
 C          0.9063403883       -1.1575522849        1.2179427740
 C          1.9499362558       -0.3061639763        1.6766490647
 C          2.0854234173        0.9527721252        1.2032070295
 C          1.2010542971        1.4671463777        0.2110976750
 C          1.3913430466        2.7289957489       -0.3795978187
 C          2.6653634892        3.4596000869       -0.2495267820
 C          2.6811967426        4.7833871893        0.1729768681
 C          3.8654589443        5.4948375492        0.2446479493
 C          5.0553650431        4.8880047098       -0.1187422243
 C          5.0546570060        3.5712529147       -0.5438324112
 C          3.8738422755        2.8434001008       -0.6206864410
 C          3.8896571180        1.4262335353       -1.0316997142
 C          2.9691156254        0.9365351527       -1.9514851852
 C          2.8152510422       -0.4305954160       -2.1493830648
 C          1.7049867774       -0.9315471415       -2.9723338614
 C          1.3096074442       -0.2792634756       -4.1370648057
 C          0.2197224005       -0.7271310716       -4.8595971855
 C         -0.4973991296       -1.8304262271       -4.4287431469
 C         -0.1113406748       -2.4891076508       -3.2740611240
 C          0.9815128004       -2.0462634249       -2.5540945691
 C          3.6567959836       -1.3066632293       -1.4721833602
 C          4.6412188259       -0.8316456417       -0.6146340484
 C          5.5122170142       -1.7703353070        0.1080482802
 C          4.9765769145       -2.9162214092        0.6910231979
 C          5.7875958589       -3.7988622263        1.3793918912
 C          7.1461039615       -3.5534860901        1.4921635987
 C          7.6880855678       -2.4160541297        0.9175100756
 C          6.8771951527       -1.5286073591        0.2343988854
 C          4.7465380745        0.5375057754       -0.3940644613
 C          0.4102474990        3.2448391560       -1.2214395716
 C         -0.6922559534        2.4953142199       -1.5784321691
 C         -0.8358448130        1.1825197648       -1.1261754013
 C         -1.8763105273        0.3294503549       -1.5888953452
 C         -2.0077747540       -0.9321205413       -1.1211970053
 C         -1.1271534424       -1.4461399320       -0.1251321986
 C         -0.0349730407       -0.6481192395        0.2911504201
 C          0.1063188414        0.6712629318       -0.2013054811
 C         -2.9643969330       -0.8940302511        1.9599900561
 C         -1.0670422671        2.1577329540        2.4838615829
 C          0.0084994286        2.6511163299        3.1971991748
 H          1.2429253431        2.4251389999        4.9327209507
 H          0.0029074006        0.4602216316        5.7626118459
 H         -1.9079410228       -0.4192621727        4.4966522679
 H         -3.6611192849        2.3825557324        1.5465444386
 H         -7.3349039490        0.4832140784        0.1552860653
 H         -8.8225953049        1.9531538671       -1.1405105649
 H         -7.9242017786        3.9810021572       -2.2206231886
 H         -5.5280580633        4.5262417853       -2.0045179025
 H         -4.0367751408        3.0463507468       -0.7199329372
 H         -5.4359975006       -1.0068642507       -0.3369766983
 H         -5.9065620257       -3.1659847687        0.8756577159
 H         -5.8481575971       -5.5162005016        0.1446087637
 H         -3.6946799249       -6.5565472623       -0.4784473911
 H         -1.6178772665       -5.2380334109       -0.3568487445
 H         -0.4797846033       -4.2038543612        1.7403684125
 H          1.4955392692       -2.8748337958        2.3566495272
 H          2.6309927420       -0.6901020501        2.4232419056
 H          2.8655005832        1.5973547131        1.5797014915
 H          1.7510349608        5.2524128433        0.4619522613
 H          3.8593461324        6.5212107474        0.5810026214
 H          5.9828331820        5.4393148995       -0.0711595011
 H          5.9811210058        3.0994924616       -0.8389423464
 H          2.3215939371        1.6235946297       -2.4737873356
 H          1.8694109629        0.5760452585       -4.4867021211
 H         -0.0737210504       -0.2118609431       -5.7629197405
 H         -1.3539010012       -2.1740366676       -4.9898244316
 H         -0.6691682642       -3.3475965613       -2.9286425014
 H          1.2601356593       -2.5506808614       -1.6411215763
 H          3.5628621999       -2.3701423285       -1.6334602067
 H          3.9144966152       -3.1000470851        0.6174366971
 H          5.3594487201       -4.6820239410        1.8315176542
 H          7.7795845771       -4.2450918391        2.0276218551
 H          8.7473506842       -2.2211878915        1.0016754852
 H          7.3049991549       -0.6486348667       -0.2239400627
 H          5.4559418618        0.9068363750        0.3324591394
 H          0.5492387815        4.2311048544       -1.6431289728
 H         -1.4296402706        2.9047601967       -2.2549276696
 H         -2.5566539310        0.7125940237       -2.3365369206
 H         -2.7834574624       -1.5781921605       -1.5037577028
 H         -2.2978908350       -1.5444845898        2.5048905563
 H         -1.3503352023        2.6244531493        1.5524698728
 H          0.5490918425        3.5104093101        2.8273190750
