  92
       -148.49173921
 O         -8.0066856991       -3.6995905812        0.1647373494
 C         -7.2930598854       -2.7052079515        0.0611406917
 C         -7.8459307148       -1.3620661650       -0.1818637138
 C         -9.2311534785       -1.2261444728       -0.2974087532
 C         -9.8048695335        0.0053064927       -0.5275076911
 C         -9.0006937829        1.1347578758       -0.6468402243
 C         -7.6323898629        1.0213222142       -0.5352519518
 C         -7.0377561836       -0.2220010510       -0.3018857171
 C         -5.5772990581       -0.2863204054       -0.1879799617
 O         -4.8470588709        0.6995356612       -0.2971885425
 C         -5.0489265670       -1.6124379766        0.0543008918
 C         -5.8395295826       -2.7663631026        0.1697690130
 C         -5.2161919103       -4.0031609731        0.3964561092
 C         -3.8533518396       -4.1249643276        0.4808187020
 C         -3.0275761848       -2.9949046067        0.3485952550
 N         -1.7049890558       -3.0468085845        0.3316530458
 C         -0.9543444433       -1.9699514052        0.2150567423
 C          0.4850691228       -2.1661768082        0.0714310299
 C          1.2595980010       -1.3749200757       -0.7807098971
 C          2.6211964066       -1.5552784729       -0.8554912516
 C          3.2515427051       -2.5457361918       -0.0959565298
 N          4.6373753980       -2.6857567828       -0.1378934316
 C          5.2169465746       -3.9598296167       -0.0969656688
 C          4.6131146587       -5.0236431077       -0.7667901340
 C          5.1822891728       -6.2814564207       -0.7290381519
 C          6.3607972434       -6.4976183131       -0.0337333760
 C          6.9653032750       -5.4432685326        0.6308931719
 C          6.3996090691       -4.1832451296        0.6066352595
 C          5.4443782600       -1.5410604856       -0.1468702116
 C          5.0702609106       -0.4114299810        0.5814420359
 C          5.8782898458        0.7081792342        0.5930713152
 C          7.0659506611        0.7216875959       -0.1203750759
 C          7.4380794090       -0.3942046640       -0.8520333828
 C          6.6360197885       -1.5190810160       -0.8701804454
 C          2.4694338781       -3.3819537613        0.7037060645
 C          1.1081098933       -3.1917739010        0.7846927054
 C         -1.5713577404       -0.6782866472        0.2146343271
 C         -0.8593860091        0.5886327126        0.2750644737
 C          0.3500379633        0.7543867816        0.9560576694
 C          1.0076645378        1.9620519755        0.9253636038
 C          0.4704803852        3.0503204793        0.2295032262
 N          1.1709759918        4.2508809899        0.1577633406
 C          0.4830356188        5.4719698398        0.1606261846
 C          0.9072348572        6.5274036816       -0.6452791297
 C          0.2266040196        7.7294322170       -0.6297132295
 C         -0.8860772230        7.8954791977        0.1784624776
 C         -1.3134813044        6.8476601315        0.9775591632
 C         -0.6351160415        5.6445160406        0.9756275702
 C          2.5631306136        4.2353834110        0.0047128782
 C          3.1761113641        3.2608847743       -0.7831954804
 C          4.5461685703        3.2666900589       -0.9560001638
 C          5.3248116499        4.2372136789       -0.3463920407
 C          4.7220921809        5.2022556446        0.4438758609
 C          3.3521531055        5.2048498449        0.6225581804
 C         -0.7774464621        2.9073304160       -0.3839533399
 C         -1.4303718067        1.6969465735       -0.3595798443
 N         -2.8855304211       -0.6380282422        0.1501900157
 C         -3.6477510483       -1.7057460767        0.1715770722
 H         -9.8321375048       -2.1184889588       -0.2010745933
 H        -10.8776141629        0.0943196666       -0.6155474951
 H         -9.4486732082        2.1009135706       -0.8270368414
 H         -6.9882408883        1.8836992009       -0.6234061064
 H         -5.8590730552       -4.8661719644        0.4897522802
 H         -3.3825379006       -5.0832818703        0.6314637513
 H          0.7858873843       -0.6255800178       -1.3965961036
 H          3.2161195473       -0.9337065782       -1.5082019070
 H          3.7000203062       -4.8541711620       -1.3184086150
 H          4.7062588633       -7.0965131591       -1.2536579323
 H          6.8048181501       -7.4809559300       -0.0097262189
 H          7.8807469000       -5.6042643254        1.1807304071
 H          6.8671806470       -3.3656488671        1.1353356366
 H          4.1493699383       -0.4235066881        1.1458830730
 H          5.5826526976        1.5731818444        1.1679309622
 H          7.6971572337        1.5969167661       -0.1053131253
 H          8.3584381450       -0.3885707667       -1.4172247278
 H          6.9259074479       -2.3875713391       -1.4432306244
 H          2.9434744612       -4.1656060039        1.2758562414
 H          0.5078997673       -3.8215047727        1.4230118847
 H          0.7637800194       -0.0607617849        1.5300545746
 H          1.9448959687        2.0818302723        1.4487205528
 H          1.7670821357        6.3960578648       -1.2857658639
 H          0.5628774189        8.5389225582       -1.2604790933
 H         -1.4169749417        8.8350938427        0.1849042484
 H         -2.1775501326        6.9696321951        1.6134185087
 H         -0.9638909453        4.8316280653        1.6061464409
 H          2.5695419485        2.5099298977       -1.2676223525
 H          5.0084532887        2.5121008578       -1.5748622527
 H          6.3946755173        4.2414447605       -0.4874999943
 H          5.3229304231        5.9571697466        0.9290488564
 H          2.8830673579        5.9566752093        1.2401385021
 H         -1.2181775858        3.7495777007       -0.8959259888
 H         -2.3911382603        1.5822283650       -0.8369333541
