92
 energy: -148.496061357265 gnorm: 0.000092208172 xtb: 6.7.1 (edcfbbe)
O           -8.05543903154175       -3.58706804335294        0.18098425506558
C           -7.32344057448890       -2.60596177005578        0.08234559961636
C           -7.85315443885828       -1.24970730618486       -0.14466244977319
C           -9.23602342834121       -1.08769621577707       -0.25164589311383
C           -9.78926179850450        0.15641308119425       -0.46475848752715
C           -8.96615100058602        1.27283597319323       -0.57529104278174
C           -7.59941058788343        1.13413018631252       -0.47230513835832
C           -7.02568595293238       -0.12220486282517       -0.25665213973143
C           -5.56742236773363       -0.21750642314016       -0.15187071838629
O           -4.81409143084102        0.75420341303935       -0.25076288685601
C           -5.06206738059967       -1.55462479376587        0.06933977103282
C           -5.87056038488458       -2.69664729692868        0.17976485567886
C           -5.26377877950083       -3.94408401466290        0.39026793277171
C           -3.90158515465453       -4.08678567611830        0.46452481662033
C           -3.05935859615593       -2.96865826861006        0.33720228257076
N           -1.73708824856003       -3.03751277007079        0.31804158674949
C           -0.97393254886999       -1.96923375523209        0.20429400339138
C            0.46391253576584       -2.18413599005633        0.06356258994511
C            1.24386034301970       -1.41818729502593       -0.80621138835729
C            2.60281869324227       -1.61641954578520       -0.88377134744470
C            3.22550892556337       -2.59827859112614       -0.10663148421763
N            4.60862839821085       -2.75551827041066       -0.15225562158288
C            5.17692704676956       -4.03300028702822       -0.06994825771876
C            4.56214830333854       -5.11436790714202       -0.70037510891553
C            5.12142561148696       -6.37477142003830       -0.62076553741430
C            6.30088921354292       -6.57621420420050        0.07738915371530
C            6.91662342041240       -5.50425202207744        0.70237832993191
C            6.36082373529882       -4.24127779911579        0.63617586587084
C            5.43003167055998       -1.62171212270607       -0.20848329899872
C            5.08240058698363       -0.46591669046716        0.49075865059903
C            5.90501472575299        0.64260237496675        0.45537449818258
C            7.08034118810984        0.61885332196414       -0.27783085241753
C            7.42662446187745       -0.52393165915299       -0.97995861474599
C            6.61029049274887       -1.63824369884397       -0.95003112076347
C            2.43696845160780       -3.40793905714147        0.71398240119678
C            1.07781676915284       -3.20187011759824        0.79500253724780
C           -1.57122540769961       -0.66889737939527        0.20097104912809
C           -0.84408004080509        0.58928298312617        0.25921337307077
C            0.37585651550422        0.73700004565616        0.92555812627978
C            1.04332858258797        1.93936064372835        0.90098874913626
C            0.50515491151456        3.04179471772417        0.22896382975975
N            1.21171420944606        4.23945369093608        0.16912876031132
C            0.53184702868841        5.46414249600481        0.21616851613480
C            0.95186147104087        6.53964642359051       -0.56498015216562
C            0.28082192718506        7.74565977443465       -0.50386255861575
C           -0.81872548906599        7.89591545232479        0.32513537074535
C           -1.24260306639338        6.82794732848511        1.09906565946473
C           -0.57320885595232        5.62067925506810        1.05202908877763
C            2.60182627273373        4.21820723173568       -0.00213442353076
C            3.19675634318937        3.25804268950632       -0.82073535905432
C            4.56457716748856        3.25675827996830       -1.01055892120902
C            5.35899474525656        4.20600677562391       -0.38786544866835
C            4.77420169062952        5.15659592657107        0.43273062063395
C            3.40664368593748        5.16592895432815        0.62875263239355
C           -0.75130133840128        2.91618121602889       -0.37051104373073
C           -1.41335608777783        1.71061891709524       -0.35405817122539
N           -2.88630249663283       -0.61323221204242        0.14178430952252
C           -3.66238663368937       -1.67049845920978        0.17118025991894
H           -9.85256173455801       -1.97007786009331       -0.16200191867289
H          -10.86067579103029        0.26534657157146       -0.54595889591455
H           -9.39811465996433        2.24873485623431       -0.74164995335496
H           -6.94119678700549        1.98653317590201       -0.55389857272172
H           -5.91766196616502       -4.79915303445777        0.48075281102693
H           -3.44479891061668       -5.05328732813778        0.60530775758836
H            0.77613987157705       -0.67409231354437       -1.43303487916409
H            3.20143337334494       -1.01544441672779       -1.55216371022727
H            3.64820448295721       -4.95685508373882       -1.25419593113174
H            4.63683019560652       -7.20373197283093       -1.11495426775830
H            6.73705838861381       -7.56176048414502        0.13413324669107
H            7.83317097279615       -5.65328070814864        1.25383282541985
H            6.83712075506638       -3.40940880131056        1.13401258436393
H            4.17032702277673       -0.44824795438039        1.06921511891400
H            5.63021430835487        1.52816206567923        1.00874777831232
H            7.72274673943467        1.48577955422414       -0.30020038679426
H            8.33773503927856       -0.54793261037906       -1.55942358799881
H            6.88015784789154       -2.52827464655987       -1.49927614858385
H            2.90418531200766       -4.18408772511831        1.30169518578835
H            0.47356292617565       -3.81203508523149        1.44842835197561
H            0.79013054218711       -0.08739735395450        1.48550027492608
H            1.98880107046330        2.04422059709640        1.41262772756023
H            1.80193284187787        6.42147215109040       -1.22089818712223
H            0.61436942378304        8.57112678656427       -1.11520285379291
H           -1.34213306151613        8.83883577800443        0.36723840232011
H           -2.09657029760834        6.93709615390865        1.75087193015026
H           -0.89913577820021        4.79200811843526        1.66325673400641
H            2.57801224153011        2.52293572465662       -1.31416153325876
H            5.01253530227480        2.51381415013491       -1.65359872944276
H            6.42720620663565        4.20491580786610       -0.54209906817802
H            5.38736931662794        5.89501976583003        0.92794874188006
H            2.95176259467059        5.90638972102631        1.27018823501348
H           -1.19209174767602        3.76888629905530       -0.86477175798294
H           -2.38072639211007        1.61093186204661       -0.82129508713512
