92
 energy: -148.496058377774 gnorm: 0.000086111521 xtb: 6.7.1 (edcfbbe)
O           -8.01142121676242       -3.69870966981534        0.11503537373148
C           -7.29426525812032       -2.70535061770075        0.03041511800575
C           -7.84407988864795       -1.35481645108010       -0.18231624065853
C           -9.22918138337070       -1.21226446514686       -0.28800505916909
C           -9.80086178378127        0.02578821690040       -0.48725457785434
C           -8.99447172990822        1.15550354055632       -0.58529083416535
C           -7.62581605239399        1.03601254492736       -0.48369460637003
C           -7.03350534948125       -0.21392407796040       -0.28159740010600
C           -5.57404290617352       -0.28850121264612       -0.17667207451402
O           -4.83509528414301        0.69501052266070       -0.26662967983982
C           -5.04915106845773       -1.61973619044668        0.03465993151100
C           -5.84056725657331       -2.77482325237158        0.13237080700851
C           -5.21565955551100       -4.01469622660248        0.33440474270030
C           -3.85184010846714       -4.13703187490727        0.41415069004701
C           -3.02633656948331       -3.00500517330494        0.30043139871269
N           -1.70315610934559       -3.05368008613392        0.28970661312999
C           -0.95559489918178       -1.97319888996117        0.18745492851914
C            0.48646702659583       -2.16625856827861        0.05855222096029
C            1.26499562583248       -1.38273470742484       -0.79667211720591
C            2.62714742625245       -1.56299001355287       -0.86245770349582
C            3.25441233362617       -2.54474612366417       -0.08904460644402
N            4.63961894784077       -2.68665024985560       -0.12462780683924
C            5.22004819228568       -3.95950898330309       -0.05834528179605
C            4.61895708931267       -5.03733308015864       -0.70781876600205
C            5.19059637993330       -6.29310681630443       -0.64489583496849
C            6.36905065539447       -6.49331996364162        0.05530588178085
C            6.97093334858171       -5.42494972138987        0.69965580354954
C            6.40261510734436       -4.16678298217484        0.65030904776781
C            5.44909286650128       -1.54360894762126       -0.15975379624517
C            5.08342642825588       -0.40107452818364        0.55201192798901
C            5.89445513647838        0.71641204984912        0.53831174631531
C            7.07586322290491        0.71496781830177       -0.18546053362164
C            7.43963024497952       -0.41421090314303       -0.90060504148825
C            6.63502751389544       -1.53738415644066       -0.89236192598403
C            2.46847916734477       -3.37132011591939        0.71699214224863
C            1.10629564759443       -3.18249367868792        0.78721383435998
C           -1.57287911558265       -0.68240877837351        0.18537982920765
C           -0.86283085274291        0.58546160397588        0.24755361803758
C            0.34548533557817        0.75068488417482        0.93062415859219
C            1.00137232242774        1.95932661403486        0.90527066985504
C            0.46324377769356        3.04991659902738        0.21402193629727
N            1.16257345196430        4.25160413007019        0.14922829221939
C            0.47497455473494        5.47259491299066        0.16864295841563
C            0.90118349501819        6.54007245418405       -0.62019187513369
C            0.22195899877244        7.74257028232794       -0.58661118432378
C           -0.89204902257162        7.89718917520634        0.22201612476984
C           -1.32204190598335        6.83719377121744        1.00350710761036
C           -0.64458282336583        5.63366227212349        0.98414132228999
C            2.55474117918273        4.23570600054087       -0.00654656164658
C            3.16345387194153        3.26875732208206       -0.80687056755063
C            4.53323618333670        3.27193339659947       -0.98148235364523
C            5.31596215721981        4.23263231667473       -0.36157939923781
C            4.71747478103386        5.19012858242661        0.44085760518591
C            3.34775149540002        5.19500894791352        0.62163750691969
C           -0.78374460493494        2.90740473972130       -0.40111822084109
C           -1.43481893877688        1.69578372598433       -0.38248172290828
N           -2.88816445883840       -0.64582609321494        0.12024231411327
C           -3.64827557155629       -1.71505115023232        0.14051659176111
H           -9.83249816106722       -2.10468704123851       -0.20844012677730
H          -10.87377302845944        0.11967572497298       -0.56731972005881
H           -9.44094300902966        2.12663709032635       -0.74082312016475
H           -6.98026524656796        1.89889566306945       -0.55571686418834
H           -5.85675255081679       -4.88044281849000        0.41421153132492
H           -3.38074498430204       -5.09745785847426        0.54923319124690
H            0.79410429638778       -0.63971416531984       -1.42234777991470
H            3.22470915123025       -0.94839279422327       -1.51932827786903
H            3.70591885231158       -4.88064823466235       -1.26337081580354
H            4.71657222052611       -7.11920627700297       -1.15391037302292
H            6.81514358059843       -7.47509672425295        0.09861537358064
H            7.88649328210727       -5.57319101347561        1.25296185967972
H            6.86812787846627       -3.33794756421964        1.16317791824612
H            4.16652945416393       -0.40097252345787        1.12307460585675
H            5.60579654658016        1.59153527544022        1.10114294318463
H            7.70931780584307        1.58869865093357       -0.19068385591541
H            8.35532908539131       -0.42055356346659       -1.47326093826717
H            6.91854408480617       -2.41684290453601       -1.45165721730870
H            2.93992044564679       -4.14728144939221        1.30158033061720
H            0.50338603754281       -3.80585329857306        1.42932216844869
H            0.75966515699689       -0.06548702981779        1.50265154623974
H            1.93828484673206        2.07808746030514        1.42942978449480
H            1.76252806777468        6.41843487257515       -1.26057517493123
H            0.56064088559161        8.56172090971848       -1.20360396412251
H           -1.42188061341239        8.83723388709631        0.24245839608789
H           -2.18745674318099        6.94975463873538        1.63944153633419
H           -0.97557838623584        4.81140176419502        1.60126793496701
H            2.55381395310392        2.52468564669630       -1.29819407513997
H            4.99207251711497        2.52353461481552       -1.61033707971494
H            6.38578203296408        4.23491096229386       -0.50396981682120
H            5.32151675466337        5.93753531874580        0.93380868436599
H            2.88210615492831        5.94096832251186        1.24881826379767
H           -1.22515757990756        3.75115187931541       -0.90997561309367
H           -2.39448596798811        1.58253508072930       -0.86231927519645
