  52
        -79.22302297
 O         -1.3472915601       -0.3706358066        2.1214391235
 C         -2.5255612127       -1.1070964524        1.8736936510
 C         -3.4284860002       -0.4992458241        0.8259924001
 C         -4.8047395792       -0.5280378144        0.9932967830
 C         -5.6484023967        0.0340681193        0.0508978962
 C         -5.1143472900        0.6489562495       -1.0697729885
 C         -3.7448857901        0.6933420275       -1.2442791945
 C         -2.8854156300        0.1142879824       -0.3114453752
 C         -1.4309780899        0.1513691105       -0.5013776961
 C         -0.7266990702        1.3874216601       -0.4029822085
 C         -1.3903960230        2.6052197524       -0.2388782492
 C         -0.6864588788        3.8024294947       -0.0969132672
 C          0.6898870299        3.7919349242       -0.0823803469
 C          1.3789206666        2.5845506177       -0.2070233116
 C          0.7008923453        1.3772415876       -0.3848029386
 C          1.3932663509        0.1337770218       -0.4697413503
 C          2.8531169804        0.0954038246       -0.3206826673
 C          3.6665049721        0.6487542845       -1.3088993943
 C          5.0427864435        0.6079160696       -1.2017165548
 C          5.6275638830        0.0220266992       -0.0916613199
 C          4.8281689987       -0.5120353133        0.9038399364
 C          3.4442604785       -0.4889709993        0.8071865620
 C          2.6021334414       -1.0536589701        1.9324981291
 O          1.6545073492       -0.1458233806        2.4452906705
 C          0.6884051788       -1.0808529966       -0.7104256728
 C          1.3579175126       -2.2827689685       -0.9553753521
 C          0.6551439404       -3.4624127064       -1.2050260239
 C         -0.7215485712       -3.4509427693       -1.2336265309
 C         -1.4138796177       -2.2589927988       -1.0102767578
 C         -0.7351536186       -1.0708020409       -0.7358571178
 H         -1.5854050796        0.5147350792        2.4194441353
 H         -3.0913654733       -1.2458681147        2.8057862080
 H         -2.1784148925       -2.0910953063        1.5378447955
 H         -5.2199536460       -0.9967517151        1.8744715094
 H         -6.7178141822       -0.0007182512        0.1946013482
 H         -5.7661724987        1.0940070035       -1.8067392715
 H         -3.3220137460        1.1570580859       -2.1237927023
 H         -2.4698000656        2.6238783453       -0.2146987222
 H         -1.2308312805        4.7286161601        0.0130270613
 H          1.2444242548        4.7102883554        0.0391817260
 H          2.4563188222        2.5837225155       -0.1513596515
 H          3.2007043456        1.0937294031       -2.1768969209
 H          5.6577172759        1.0347651071       -1.9807418870
 H          6.7027812500       -0.0101552894        0.0033757330
 H          5.2868070855       -0.9518410065        1.7780641527
 H          3.2639274882       -1.3031651762        2.7687569312
 H          2.1149241199       -1.9804459678        1.5986625799
 H          0.8153255182       -0.2361886562        1.9766959569
 H          2.4378305541       -2.2962369087       -0.9575622894
 H          1.1998519943       -4.3779933041       -1.3818433346
 H         -1.2740425730       -4.3572295627       -1.4325239228
 H         -2.4930566350       -2.2540101784       -1.0607445126
