  49
        -77.10128258
 C         -5.5542928676        3.4276820956        0.4950503318
 C         -4.2396326444        3.6274679870        0.1028685140
 C         -3.3836267061        2.5532389074       -0.0266345637
 C         -3.8306755648        1.2540070708        0.2270741522
 C         -2.9010059812        0.1529648625        0.0749862505
 N         -1.5834113745        0.3379368008        0.2219243917
 C         -0.9636937697       -0.8355822727        0.0852968275
 C          0.4128416372       -1.0772040133        0.2979707144
 C          0.8443119423       -2.3272594631        0.8065656397
 C          2.1564212905       -2.6157295497        1.0045952628
 C          3.1790111089       -1.6685274043        0.6804973747
 C          4.5303767996       -1.9685530322        0.8338290920
 C          5.5068428797       -1.0312934765        0.5453490464
 C          5.1582497247        0.2500902426        0.0950703092
 C          6.1365741047        1.2292556943       -0.2031842379
 C          5.7683672205        2.4872127151       -0.6440859555
 C          4.4398115717        2.8163573792       -0.8054468047
 C          3.4204049882        1.8703703739       -0.5200474595
 C          2.0623679829        2.1677913220       -0.6726515878
 C          1.0864866679        1.2240104931       -0.3978740044
 C          1.4159901584       -0.0533879530        0.0533236632
 C          2.7858907397       -0.3825933280        0.2233677801
 C          3.7855893236        0.5774259892       -0.0653093664
 N         -1.9045623038       -1.8195297759       -0.2308424547
 C         -1.7545539400       -3.0908437650       -0.6735901972
 C         -2.8443242313       -3.8260673103       -1.0252532537
 C         -4.1367956574       -3.2527079279       -0.9738710589
 C         -4.2823977499       -1.9440683108       -0.6037616979
 C         -3.1548586008       -1.2019164720       -0.2311320805
 C         -5.1488756861        1.0657743253        0.6447182972
 C         -6.0008782801        2.1458991684        0.7731562611
 H         -6.2254650404        4.2679147054        0.5938426160
 H         -3.8837532713        4.6265581664       -0.1018307396
 H         -2.3574843571        2.6955698627       -0.3267442420
 H          0.0998058395       -3.0437693021        1.1249909704
 H          2.4517114394       -3.5618607043        1.4342890713
 H          4.8136242957       -2.9514961626        1.1834039106
 H          6.5510360966       -1.2803164531        0.6675103257
 H          7.1791487518        0.9767396178       -0.0781646092
 H          6.5326832019        3.2189936371       -0.8655253899
 H          4.1537681441        3.7977882045       -1.1531800651
 H          1.7751244383        3.1521967281       -1.0130899251
 H          0.0471723221        1.4776663283       -0.5213404456
 H         -0.7481523883       -3.4661331826       -0.7649179155
 H         -2.7157207833       -4.8381424406       -1.3712752724
 H         -4.9915703016       -3.8416725944       -1.2647603072
 H         -5.2455700353       -1.4614360370       -0.6245487825
 H         -5.4975682760        0.0776178951        0.9036402844
 H         -7.0188027271        1.9887751037        1.0995643951
