68
 energy: -116.878874737337 gnorm: 0.000026240149 xtb: 6.7.1 (edcfbbe)
C          -10.40548789124269       -1.02711868636689       -0.07320695349972
C           -9.82854859521047       -2.29150027989536        0.01774431615337
C           -8.45768409658855       -2.45215374591338        0.07520988253336
C           -7.65896005841164       -1.31587222761286        0.03890295663363
C           -8.25830732018392       -0.04379913488626       -0.05288662895672
C           -9.63033538428891        0.11919260904067       -0.11047618158695
O           -7.32152549065232        0.95083373695596       -0.07616765855735
C           -6.11415622874364        0.33154549572695       -0.00398624937305
C           -6.24168044053744       -1.06752224749890        0.07328182653377
C           -5.11384972197590       -1.88026684091672        0.18721955258741
C           -3.85677635249501       -1.31186297277433        0.19383544472512
C           -3.73333688015391        0.07303662763543        0.07756121226585
C           -4.85976490211485        0.92400223268730        0.00930829779543
C           -4.37676668480710        2.27474005915210        0.00729469173014
C           -5.01141621863331        3.50853225821616       -0.05123920779749
C           -4.23123567630813        4.64782395131747       -0.02957523291468
C           -2.84283084387103        4.56297627260661        0.04495232560229
C           -2.19315102697284        3.34297974273033        0.10286064566252
C           -2.97077001833093        2.19639409571795        0.08819442474357
N           -2.58708404543136        0.85796394125408        0.09931013457510
C           -1.27937559487187        0.41115866894356        0.05234181602117
C           -0.88960033325391       -0.71619748128907       -0.68288776653172
N            0.36398713452414       -1.11354256061803       -0.72563154010136
C            1.27937557644187       -0.41117860430193       -0.05225197216347
N            2.58708568745913       -0.85798059244818       -0.09922399268180
C            2.97077784004230       -2.19640793965412       -0.08808920704786
C            2.19316256323336       -3.34299668394922       -0.10270832289866
C            2.84284852300627       -4.56298920626888       -0.04478718866685
C            4.23125564994557       -4.64782941174816        0.02970755056597
C            5.01143256427238       -3.50853433856771        0.05132380962461
C            4.37677692068983       -2.27474579476831       -0.00722303781606
C            4.85976858097496       -0.92400566875843       -0.00927847059020
C            6.11415694503101       -0.33154139666483        0.00396717344327
O            7.32153203165954       -0.95082142054067        0.07612192988891
C            8.25830761468426        0.04381611438354        0.05278867914140
C            9.63033850638644       -0.11916719694117        0.11033361086635
C           10.40548361088541        1.02714756589477        0.07301415302553
C            9.82853425908713        2.29152410564347       -0.01794350609997
C            8.45766695095485        2.45216907903916       -0.07536482899180
C            7.65895021968752        1.31588408930978       -0.03900572755500
C            6.24167083079037        1.06752557533796       -0.07333270697276
C            5.11383221807575        1.88026216320088       -0.18725037111889
C            3.85676188795539        1.31185124963603       -0.19381878574965
C            3.73333432945790       -0.07304718365651       -0.07751851794091
C            0.88960107602798        0.71617744254713        0.68297693894181
N           -0.36398684413880        1.11352158881779        0.72572235898132
H          -11.48041239992173       -0.93763897542665       -0.11622282873873
H          -10.46837043343883       -3.16093135435299        0.04426107749027
H           -8.01310272292826       -3.43282099596433        0.14581813572477
H          -10.06937691293206        1.10168832601826       -0.18101824070204
H           -5.22684432611834       -2.94885422430725        0.27851681118775
H           -2.98713599257895       -1.93744221157920        0.31674562066779
H           -6.08755265347428        3.56129548181455       -0.11265349285838
H           -4.70037394190475        5.61947169158449       -0.07059694341989
H           -2.25824981249154        5.47075782895895        0.05991948945928
H           -1.11902119076587        3.28324273463420        0.16943805636530
H           -1.58756782699871       -1.29037838947977       -1.27486035715374
H            1.11903072703804       -3.28326521553186       -0.16926036930060
H            2.25827089539536       -5.47077355560495       -0.05971796049444
H            4.70039859278515       -5.61947436977925        0.07074192050183
H            6.08757068483796       -3.56129221853944        0.11271301909233
H           10.06938773622238       -1.10165909545586        0.18088102501863
H           11.48041013187484        0.93767462079138        0.11599359170223
H           10.46835060533446        3.16095795235454       -0.04450244652915
H            8.01307793347722        3.43283243728068       -0.14597900853129
H            5.22681835313535        2.94884862661924       -0.27856903182326
H            2.98711347042080        1.93742277355372       -0.31671196622633
H            1.58757021097879        1.29036008265148        1.27494622213440
