  68
       -116.83300284
 C         -9.7494017138        2.6783629897        0.8642794276
 C         -8.8874125282        3.5235896091        1.5580373712
 C         -7.5284959237        3.2809481764        1.6039076638
 C         -7.0347058436        2.1668676060        0.9377821996
 C         -7.9202096330        1.3212118812        0.2394813336
 C         -9.2807622013        1.5626407080        0.1930966569
 O         -7.2609976797        0.2849970763       -0.3520457321
 C         -5.9488097328        0.4505704604       -0.0451800246
 C         -5.7303393842        1.5897650563        0.7507991913
 C         -4.4455273259        1.9298119594        1.1755268468
 C         -3.3713188524        1.1474402640        0.8077698197
 C         -3.5940308849        0.0255621388        0.0121177368
 C         -4.8823054731       -0.3505151635       -0.4252990432
 C         -4.7379164160       -1.5416636652       -1.2095020187
 C         -5.6446367933       -2.3223717286       -1.9121873317
 C         -5.1641392448       -3.4005781684       -2.6283710635
 C         -3.8009001124       -3.6797305844       -2.6656163962
 C         -2.8831243128       -2.9144070240       -1.9683798630
 C         -3.3606847276       -1.8548037827       -1.2109963718
 N         -2.6785935040       -0.9136489945       -0.4488071469
 C         -1.3277324258       -0.9305299683       -0.1585590491
 C         -0.6107908397       -2.1211740155        0.0198603654
 N          0.6900094724       -2.1204494141        0.2134053787
 C          1.3255384452       -0.9473514788        0.2705947606
 N          2.6979620918       -0.9679911407        0.4291556869
 C          3.4068661107       -1.9211162900        1.1536938496
 C          2.9567442517       -3.0559987161        1.8086876819
 C          3.8883193095       -3.8155941910        2.4928739694
 C          5.2347962347       -3.4614862109        2.5313545587
 C          5.6885167304       -2.3282073357        1.8863475270
 C          4.7679969856       -1.5534491525        1.1941697970
 C          4.8860012170       -0.3465101721        0.4295554032
 C          5.9371996696        0.4784915327        0.0586731552
 O          7.2451326149        0.3569378214        0.3989477283
 C          7.8907744636        1.3944873376       -0.2051227033
 C          9.2430463850        1.6735011551       -0.1346140591
 C          9.6977965956        2.7825618736       -0.8261003540
 C          8.8304878792        3.5854314210       -1.5623067851
 C          7.4799173384        3.3053781786       -1.6323465968
 C          7.0003779283        2.1967944578       -0.9469259135
 C          5.7082552553        1.5892650076       -0.7741626043
 C          4.4307870717        1.8637054091       -1.2613673347
 C          3.3707049696        1.0590123297       -0.8991460304
 C          3.5942248613       -0.0164068504       -0.0388828173
 C          0.5844402945        0.2414361030        0.2421804402
 N         -0.7111116397        0.2411080439        0.0152720494
 H        -10.8062084594        2.8979322303        0.8488767991
 H         -9.2928835501        4.3845445003        2.0682372034
 H         -6.8622247279        3.9377647023        2.1418686145
 H         -9.9425325718        0.9039387830       -0.3461392804
 H         -4.2972362634        2.8059800526        1.7871317416
 H         -2.3707071133        1.3997556471        1.1158635212
 H         -6.6944182649       -2.0747084172       -1.8985861671
 H         -5.8472632942       -4.0264201311       -3.1823487151
 H         -3.4472913460       -4.5105973256       -3.2576560523
 H         -1.8289587814       -3.1316352601       -2.0428871544
 H         -1.0951189880       -3.0862868522        0.0491094123
 H          1.9179162872       -3.3393430540        1.7749041100
 H          3.5628562007       -4.7074716545        3.0074616092
 H          5.9299550470       -4.0844068713        3.0741413365
 H          6.7279660949       -2.0403233088        1.9115237044
 H          9.9087924591        1.0474710232        0.4374238066
 H         10.7480399172        3.0300810617       -0.7938292580
 H          9.2250619425        4.4423598903       -2.0874967318
 H          6.8096072073        3.9291044185       -2.2035410423
 H          4.2766456711        2.6987924950       -1.9265014619
 H          2.3901443696        1.2502534819       -1.3046589925
 H          1.0308487208        1.2037585493        0.4462226103
