68
 energy: -116.879449424911 gnorm: 0.000056942672 xtb: 6.7.1 (edcfbbe)
C           -9.74599877760053        2.66289790609747        0.91246439888219
C           -8.87996044100391        3.49729471503006        1.61499079078363
C           -7.52090747046720        3.25205049088565        1.65368047936829
C           -7.03076166422779        2.14597323788693        0.97038626574412
C           -7.92045994320106        1.31203603405218        0.26401922001641
C           -9.28125275587129        1.55493418633292        0.22482601881079
O           -7.26305253171911        0.28150473119264       -0.34675431040138
C           -5.94772730021489        0.44298610716970       -0.04274552830857
C           -5.72664784887764        1.57022147224934        0.76939616678560
C           -4.43954696148657        1.90377819347737        1.19296672181608
C           -3.36745433249268        1.12601484543778        0.80811979157516
C           -3.59340685140991        0.01628172291208       -0.00357849447790
C           -4.88382469658251       -0.35395378859147       -0.43999083610698
C           -4.74391013200727       -1.53630520932433       -1.23996832802531
C           -5.65390463518997       -2.30799436202140       -1.94961709446995
C           -5.17752602071513       -3.37971661223095       -2.67894052685406
C           -3.81496176539538       -3.66202271482339       -2.72213033275740
C           -2.89388405266311       -2.90516919534877       -2.01910050477315
C           -3.36735005807972       -1.85215992122884       -1.24974850036677
N           -2.67972407671505       -0.91877665390479       -0.48003694983355
C           -1.32631645735275       -0.93388051380545       -0.20094154061531
C           -0.60752811310859       -2.12317346878876       -0.02072641846453
N            0.69285052660407       -2.12149557124168        0.18049124308301
C            1.32668989037997       -0.94675337640272        0.23882704383782
N            2.69665510656417       -0.96338619706998        0.41829039283811
C            3.39565689803832       -1.89622381239999        1.18053629068917
C            2.93590333924161       -3.01334594448292        1.85928895517743
C            3.85695038514404       -3.75393228409191        2.57868313582520
C            5.20238357963727       -3.39692884769741        2.62900663299801
C            5.66520589529518       -2.28002927130081        1.96143778375865
C            4.75547813674682       -1.52470507151961        1.23331268603130
C            4.88438892647873       -0.33756294608263        0.43822688965204
C            5.93941796673032        0.48109270394808        0.06246722432215
O            7.24334447317841        0.37153918504803        0.42874404595179
C            7.89777589867025        1.39774644209753       -0.19241693356832
C            9.24819903433635        1.68242402138494       -0.10488783036267
C            9.71144594009465        2.77618684735673       -0.81585048920806
C            8.85438629741624        3.55629496521868       -1.58830417633533
C            7.50570954702080        3.26969265905593       -1.67493642871887
C            7.01748044094279        2.17650930730022       -0.96983315490674
C            5.72326722433495        1.56891000032392       -0.80349727098136
C            4.45333707198247        1.82739791823798       -1.31898581871630
C            3.38894236767901        1.02970991579910       -0.95226252912971
C            3.60019216742019       -0.02199675485177       -0.06017057620449
C            0.58638846361768        0.24189421738949        0.18894810631901
N           -0.70918984038370        0.24026215381335       -0.04038563562307
H          -10.80263244192175        2.88391047695551        0.90288189851323
H           -9.28244720501185        4.35183256075565        2.13831675558671
H           -6.85191386864728        3.90023440650027        2.19838907957415
H           -9.94483356790448        0.90412997976103       -0.32227499723761
H           -4.28667991342973        2.76974402349811        1.81742484889492
H           -2.36576553370670        1.37432071366437        1.11667570688906
H           -6.70373727105182       -2.05924164191519       -1.93054416518475
H           -5.86391990305961       -3.99757733212903       -3.23789169766513
H           -3.46379505443224       -4.48706437372030       -3.32361100548588
H           -1.84033332942728       -3.12477201582628       -2.09585746578144
H           -1.08980799951790       -3.08976701420250        0.00306657804339
H            1.89754893167123       -3.29874704196945        1.81730184273997
H            3.52332600054764       -4.63167004243586        3.11191793548051
H            5.88971253285232       -4.00358996608860        3.19943454756197
H            6.70419715875788       -1.99033968434022        1.99664048646017
H            9.90497699792840        1.07316356368346        0.49556049185731
H           10.76011340368254        3.02836257898509       -0.77026954267170
H            9.25533835979694        4.40109336973507       -2.12822728978699
H            6.84364966157821        3.87581977309220       -2.27385064081723
H            4.30761053548874        2.64377333628929       -2.00838844534832
H            2.41386742589050        1.20931253975754       -1.37630305889727
H            1.03372658874759        1.20738790533577        0.37707347384600
