  51
        -86.70243853
 O          3.6587948907       -3.3393298865        0.2795459596
 C          3.3252875477       -2.3452154186       -0.3221684976
 C          4.3472671207       -1.4584715196       -1.0255513585
 C          4.0072814766        0.0161020397       -1.0061382522
 O          4.0709811749        0.6737737033       -2.0390146518
 C          3.5453063048        0.5926272678        0.2567871581
 C          3.7110757893       -0.0597643009        1.4852631820
 C          3.1681418126        0.4525083609        2.6400386659
 C          2.4272045210        1.6297826289        2.5941932955
 C          2.2663354419        2.3047925077        1.4067409867
 C          2.8393679338        1.8173839461        0.2283345068
 O          2.6639864535        2.5228059449       -0.8917063920
 C          1.9255558586       -1.8749969939       -0.3816881472
 C          1.1034913990       -2.1323603701        0.7164689239
 C         -0.1682980947       -1.6079468136        0.7830083227
 C         -0.6564055880       -0.8283345693       -0.2653363890
 N         -1.9310967570       -0.2464115230       -0.1865518891
 C         -3.0731680875       -1.0364886133       -0.0149294466
 C         -3.0233098803       -2.4249608029       -0.0233103324
 C         -4.1752877276       -3.1786195675        0.1408034286
 C         -5.3979451162       -2.5587935009        0.3023039006
 C         -5.4702510919       -1.1745203572        0.2742633657
 C         -4.3243726947       -0.4181217692        0.1081452776
 O         -4.4832004444        0.9427996713        0.0518797435
 C         -3.3576647599        1.7050710669       -0.1353522954
 C         -3.5345816637        3.0757715759       -0.1895787656
 C         -2.4435824806        3.9179926069       -0.3404071184
 C         -1.1751761251        3.3788413857       -0.4128869474
 C         -0.9931901221        2.0058486528       -0.3580374244
 C         -2.0781970310        1.1458190424       -0.2468743712
 C          0.1384633786       -0.6240598354       -1.3938707703
 C          1.4166630211       -1.1365224391       -1.4506830909
 H          4.4287811302       -1.7731025838       -2.0703490102
 H          5.3221853361       -1.6247392297       -0.5600079569
 H          4.2887571004       -0.9689591239        1.5335575846
 H          3.3129085885       -0.0596684540        3.5782463912
 H          1.9849109833        2.0233926949        3.4967290191
 H          1.7085617921        3.2261671393        1.3540847915
 H          3.1575697351        2.0781700893       -1.6212420443
 H          1.5003902992       -2.7187894228        1.5311411363
 H         -0.7850740625       -1.7766506311        1.6529050405
 H         -2.0783965978       -2.9241837694       -0.1701315697
 H         -4.1049092229       -4.2552996221        0.1361288869
 H         -6.2963188153       -3.1402802984        0.4355270379
 H         -6.4115473815       -0.6581613767        0.3731782895
 H         -4.5373929686        3.4629923807       -0.1067498925
 H         -2.5925175188        4.9850792946       -0.3878165231
 H         -0.3108712897        4.0161943672       -0.5143917530
 H          0.0071481670        1.6067150594       -0.3938341075
 H         -0.2579657777       -0.0594481368       -2.2244515169
 H          2.0044227632       -0.9835533310       -2.3423788265
