  51
  -86.3748375797000       0.327538218706075      !
 O          3.4661754786       -3.4275334264        0.7036165066
 C          3.1990010394       -2.4824661839       -0.0036310480
 C          4.2862594202       -1.7708517383       -0.7989057157
 C          4.0995740033       -0.2855868869       -1.0157031036
 O          4.3013993549        0.1933653335       -2.1272809217
 C          3.6411386936        0.5294864571        0.1088118418
 C          3.6296375687        0.0532948065        1.4263051594
 C          3.1009850441        0.8048737847        2.4491458123
 C          2.5601764332        2.0590057790        2.1796569146
 C          2.5810924955        2.5640690215        0.9008925568
 C          3.1344707063        1.8247953066       -0.1491751279
 O          3.1366707942        2.3724670050       -1.3651607522
 C          1.8272290317       -1.9447040000       -0.1170760423
 C          1.3828309964       -1.1962066849       -1.2075252795
 C          0.1229061216       -0.6373133124       -1.1987934364
 C         -0.7244889388       -0.8220271077       -0.1064365756
 N         -1.9915239733       -0.2157055362       -0.0876086011
 C         -2.1078135949        1.1786294101       -0.1134473265
 C         -0.9999379638        2.0166579347       -0.0951932949
 C         -1.1537476968        3.3944084373       -0.1138616327
 C         -2.4136565419        3.9572498506       -0.1346864729
 C         -3.5296633426        3.1344813437       -0.1163846066
 C         -3.3827111519        1.7596196299       -0.0989464475
 O         -4.5329825638        1.0135489541       -0.0476177901
 C         -4.4027307631       -0.3517563699       -0.0163284838
 C         -5.5706112567       -1.0913036753        0.0198977930
 C         -5.5223540401       -2.4771439842        0.0174578976
 C         -4.2996690567       -3.1148393330       -0.0399593067
 C         -3.1255469351       -2.3781517328       -0.0742843488
 C         -3.1556810257       -0.9898245724       -0.0395516647
 C         -0.3039779560       -1.6117220789        0.9626719250
 C          0.9564681573       -2.1662846006        0.9517049474
 H          4.3584775453       -2.2442412234       -1.7835334166
 H          5.2393074499       -1.9456600864       -0.2911650668
 H          4.0570974205       -0.9114533031        1.6487543867
 H          3.1043152762        0.4227604581        3.4578198239
 H          2.1312915995        2.6442203222        2.9789093171
 H          2.1873636074        3.5421282241        0.6746218808
 H          3.5922911066        1.7533667843       -1.9849097270
 H          2.0034758267       -1.0722187032       -2.0808084660
 H         -0.2204409221       -0.0551787417       -2.0408429314
 H         -0.0075522370        1.5948845705       -0.0570960441
 H         -0.2757401758        4.0207073740       -0.1115041858
 H         -2.5378029488        5.0283945667       -0.1531402661
 H         -4.5284790083        3.5405231886       -0.1107971137
 H         -6.5092059819       -0.5611768916        0.0429336518
 H         -6.4382854234       -3.0455548472        0.0477688403
 H         -4.2457971771       -4.1922293883       -0.0637054963
 H         -2.1782350223       -2.8899336462       -0.1395592097
 H         -0.9640160913       -1.7644224157        1.8033782768
 H          1.3057128713       -2.7580633640        1.7843676504
  51
  -86.3746101841000       0.257488715467802      !
 O          4.1747370809       -0.2173271763        2.6721506864
 C          3.5430099873       -0.8349971028        1.8469502548
 C          4.2080958927       -1.8662636135        0.9416024977
 C          3.6189333695       -1.9420092048       -0.4503329948
 O          3.3347052311       -3.0307104048       -0.9375366359
 C          3.3478026907       -0.6833078655       -1.1452733400
 C          3.8938808400        0.5374421143       -0.7283611623
 C          3.5331179446        1.7193563658       -1.3313834143
 C          2.5991806623        1.7136393208       -2.3632715082
 C          2.0626754622        0.5284834063       -2.8095089018
 C          2.4426149401       -0.6864596357       -2.2314651557
 O          1.9014311445       -1.8068459979       -2.7159493905
 C          2.1026947667       -0.6093737165        1.6051178540
 C          1.6015135462        0.6780054540        1.8037307727
 C          0.3016194059        0.9874741822        1.4699794934
 C         -0.5371607343        0.0030243564        0.9480817754
 N         -1.8475879629        0.3180877905        0.5566810645
 C         -2.7617074168        0.8549313236        1.4700197972
 C         -2.4639096829        1.0013035611        2.8192057662
 C         -3.3957754400        1.5289519285        3.6996608939
 C         -4.6450890928        1.9064886306        3.2503956263
 C         -4.9716171267        1.7309977708        1.9144282003
 C         -4.0465347984        1.2025697942        1.0325223643
 O         -4.4579573961        1.0236810546       -0.2633285132
 C         -3.5580642379        0.4791531355       -1.1445922326
 C         -3.9881574419        0.3054397480       -2.4476284873
 C         -3.1279111122       -0.2052577844       -3.4075914852
 C         -1.8298874998       -0.5178578359       -3.0580089382
 C         -1.3943821636       -0.3444985403       -1.7535864312
 C         -2.2543330742        0.1286952702       -0.7708249156
 C         -0.0590719558       -1.3006400495        0.8101508966
 C          1.2469289276       -1.6037315123        1.1297399197
 H          4.1146869897       -2.8541465172        1.4026898198
 H          5.2748365345       -1.6344677463        0.8852445697
 H          4.6232087090        0.5529408832        0.0656942013
 H          3.9701109731        2.6489310840       -1.0020747728
 H          2.3012337950        2.6425496085       -2.8253067143
 H          1.3492707236        0.5024986333       -3.6177129611
 H          2.2956637059       -2.5755177174       -2.2392186037
 H          2.2666755027        1.4364328762        2.1877437949
 H         -0.0687685515        1.9947011519        1.5878797255
 H         -1.4995477648        0.6907646605        3.1896282810
 H         -3.1340429156        1.6365228852        4.7408810917
 H         -5.3717960980        2.3222698103        3.9300819822
 H         -5.9461022409        1.9924837888        1.5343580906
 H         -5.0017186769        0.5818398856       -2.6899664208
 H         -3.4746177230       -0.3427773773       -4.4195135098
 H         -1.1390361797       -0.9015442592       -3.7922119613
 H         -0.3707395576       -0.5735911120       -1.5067299358
 H         -0.7233076529       -2.0718802886        0.4498923019
 H          1.5875809829       -2.6230238283        1.0349680933
  51
  -86.3743942534000       0.204891207439057      !
 O          3.7767464853       -2.4145070715       -2.1354551362
 C          3.4930862452       -1.3595171613       -1.6202749965
 C          4.5576654213       -0.4473294188       -1.0201045962
 C          4.0825296855        0.3142269085        0.1989365350
 O          4.2598424524        1.5249283218        0.2738785103
 C          3.3552851018       -0.4328578177        1.2252881468
 C          3.3663401048       -1.8326743888        1.2847880732
 C          2.5887903633       -2.5107849652        2.1938621745
 C          1.7637848053       -1.8033680977        3.0638480256
 C          1.7450481632       -0.4281267121        3.0417421619
 C          2.5520405377        0.2800220982        2.1455584537
 O          2.5060514599        1.6123038449        2.1811578269
 C          2.0997441933       -0.8836669317       -1.4682651524
 C          1.1086669298       -1.8343685079       -1.2237071901
 C         -0.1825391801       -1.4440259535       -0.9436018068
 C         -0.5154114028       -0.0904350164       -0.9325944392
 N         -1.8250490294        0.3079319965       -0.6116392945
 C         -2.6148445102        1.0008654788       -1.5346840387
 C         -2.1739304438        1.2936637579       -2.8188513043
 C         -2.9880067615        1.9745508959       -3.7114258438
 C         -4.2592096519        2.3628868930       -3.3402665352
 C         -4.7268461910        2.0481677733       -2.0731731438
 C         -3.9201402559        1.3671728314       -1.1802860136
 O         -4.4676832971        1.0592362262        0.0397943769
 C         -3.6735392809        0.3981405932        0.9422264912
 C         -4.2244333381        0.1275607192        2.1812525525
 C         -3.4715326043       -0.5052541162        3.1589708139
 C         -2.1606894663       -0.8453957233        2.8931763048
 C         -1.6040714991       -0.5804859826        1.6512542423
 C         -2.3561084603        0.0211431863        0.6501414967
 C          0.4586312117        0.8596464685       -1.2346764498
 C          1.7558044214        0.4675537882       -1.4927584841
 H          4.8693638245        0.2800909701       -1.7754323930
 H          5.4319133338       -1.0543606058       -0.7722412071
 H          4.0059619489       -2.3914848654        0.6204262374
 H          2.6153199687       -3.5885482555        2.2305019448
 H          1.1424886138       -2.3373743046        3.7669780150
 H          1.1217964420        0.1400716772        3.7140077639
 H          3.1543930414        1.9651007034        1.5266151550
 H          1.3779805880       -2.8795099844       -1.2354930077
 H         -0.9440287639       -2.1794521342       -0.7314094258
 H         -1.1910525693        0.9772489482       -3.1309772964
 H         -2.6173839425        2.1916492187       -4.7013141888
 H         -4.8950237282        2.8957996420       -4.0292986586
 H         -5.7223438737        2.3168219068       -1.7579670212
 H         -5.2445231010        0.4263930010        2.3619226083
 H         -3.9105003726       -0.7150239438        4.1214898215
 H         -1.5541326137       -1.3175816878        3.6502477959
 H         -0.5720877373       -0.8359229205        1.4669954444
 H          0.1959318407        1.9068737707       -1.2398873787
 H          2.4955011444        1.2183728337       -1.7235587001
  51
  -86.3732822584000       6.316635299679883E-002 !
 O          3.2428576478       -2.8217236544       -0.6657623155
 C          2.7993813188       -2.1048821932        0.2053075023
 C          3.6883369775       -1.6357073890        1.3535723889
 C          3.8295350256       -0.1262605803        1.3721588175
 O          3.3010868417        0.5153511389        2.2768786101
 C          4.5795020759        0.5158434232        0.2989533234
 C          5.2015358922       -0.2116616845       -0.7280792865
 C          5.8912812241        0.4244099061       -1.7326755824
 C          5.9848658772        1.8136194220       -1.7423623377
 C          5.3876263040        2.5553366233       -0.7506653252
 C          4.6810896876        1.9293463581        0.2811832507
 O          4.1241175584        2.7070944514        1.2100988411
 C          1.4061232521       -1.6264163694        0.1955840103
 C          0.6684533565       -1.8201837435       -0.9778114856
 C         -0.6305936352       -1.3783658855       -1.0817349881
 C         -1.2313991484       -0.7243478172       -0.0052380569
 N         -2.5510351031       -0.2556812497       -0.1038736030
 C         -2.8376511236        1.1048738348        0.0623732677
 C         -1.8439032931        2.0568946828        0.2538503044
 C         -2.1629570796        3.3974868476        0.4054299797
 C         -3.4783638114        3.8122910631        0.3541247544
 C         -4.4789807254        2.8803252875        0.1260074129
 C         -4.1656658680        1.5420069777       -0.0275215858
 O         -5.2073662493        0.6887484142       -0.2888243907
 C         -4.9133061320       -0.6419542044       -0.4413177261
 C         -5.9778642931       -1.4937290450       -0.6737054839
 C         -5.7681542098       -2.8581406219       -0.8019177353
 C         -4.4901169480       -3.3636796305       -0.6751277166
 C         -3.4193513701       -2.5140166166       -0.4439537292
 C         -3.6072302562       -1.1406284076       -0.3488978924
 C         -0.5072193008       -0.5405863063        1.1727639073
 C          0.7922294017       -0.9889231393        1.2763399760
 H          4.6652682288       -2.1078088433        1.2448285992
 H          3.2447517263       -1.9460424309        2.3013864521
 H          5.1364728158       -1.2866174762       -0.7435908624
 H          6.3608961251       -0.1539188936       -2.5127602369
 H          6.5292643650        2.3120021238       -2.5304158279
 H          5.4464572616        3.6322488632       -0.7366843267
 H          3.6726722885        2.1265895047        1.8701640126
 H          1.1518020267       -2.3109112476       -1.8093670053
 H         -1.1857815716       -1.5174008045       -1.9974955862
 H         -0.8090807818        1.7538277857        0.2753572789
 H         -1.3695677227        4.1122200629        0.5591432332
 H         -3.7323077814        4.8532588961        0.4761451920
 H         -5.5146418494        3.1718671456        0.0562897356
 H         -6.9654145144       -1.0667837807       -0.7440945024
 H         -6.6040618849       -3.5143301174       -0.9852527387
 H         -4.3126405376       -4.4253359402       -0.7495984407
 H         -2.4302101583       -2.9274643676       -0.3257905911
 H         -0.9801936615       -0.0534660626        2.0125314697
 H          1.3142714674       -0.8432434354        2.2076279644
  51
  -86.3732588782000       6.162274029617607E-002 !
 O          3.1636945316       -2.4979189740       -0.7586166216
 C          2.6757242225       -1.8601167787        0.1501570442
 C          3.5188905420       -1.4822385079        1.3654795490
 C          3.8623259407       -0.0042065613        1.3452283109
 O          3.2593137980        0.7589472221        2.0962774784
 C          4.9007918939        0.4606398246        0.4338677382
 C          5.5442888918       -0.3917736929       -0.4774980366
 C          6.5250054604        0.0772950916       -1.3187203647
 C          6.9038856338        1.4161622832       -1.2695144389
 C          6.2901074546        2.2781074845       -0.3915534597
 C          5.2809377358        1.8258662255        0.4643593957
 O          4.7185174088        2.7168210053        1.2817443815
 C          1.2722203267       -1.4145788826        0.1281672037
 C          0.5137553020       -1.7418571617       -1.0021999723
 C         -0.8038194375       -1.3610872514       -1.1097177945
 C         -1.4038375482       -0.6306506649       -0.0826074197
 N         -2.7468854335       -0.2360147422       -0.1800658810
 C         -3.0985831610        1.1181887451       -0.1158229523
 C         -2.1494079559        2.1310433467       -0.0504701955
 C         -2.5323043249        3.4621395320        0.0063619179
 C         -3.8689927717        3.8060474699       -0.0160610396
 C         -4.8273802558        2.8102432657       -0.1229406209
 C         -4.4501401963        1.4808377968       -0.1823712175
 O         -5.4548270558        0.5590804266       -0.3291717843
 C         -5.0959689269       -0.7619584452       -0.4068549333
 C         -6.1220633179       -1.6786517170       -0.5480147121
 C         -5.8473989413       -3.0366490163       -0.5921479356
 C         -4.5422774282       -3.4689632985       -0.4705235177
 C         -3.5101344610       -2.5540780215       -0.3310345637
 C         -3.7634787334       -1.1877836029       -0.3255498736
 C         -0.6529815060       -0.2960200624        1.0447195201
 C          0.6646923827       -0.6860139558        1.1539416652
 H          4.4286129838       -2.0816317704        1.3498246733
 H          2.9601737152       -1.6889654279        2.2785510770
 H          5.2559199185       -1.4276583284       -0.5432620421
 H          7.0022244035       -0.5939227247       -2.0155135877
 H          7.6806803687        1.7814530313       -1.9244795023
 H          6.5618382110        3.3206354931       -0.3394616776
 H          4.0244974195        2.2559034953        1.8123846111
 H          0.9940088733       -2.2933135342       -1.7965762242
 H         -1.3754684635       -1.6077679736       -1.9920080285
 H         -1.0999631641        1.8822061634       -0.0534720748
 H         -1.7721637944        4.2256761424        0.0641080705
 H         -4.1722941996        4.8397200818        0.0341280216
 H         -5.8791670564        3.0433946906       -0.1687344953
 H         -7.1315026120       -1.3059097587       -0.6140032950
 H         -6.6531500998       -3.7440898314       -0.7072255056
 H         -4.3126755269       -4.5233335804       -0.4788958842
 H         -2.4991155834       -2.9111768581       -0.2141797226
 H         -1.1196629080        0.2606709322        1.8437876124
 H          1.2099926518       -0.4094763674        2.0411558147
  51
  -86.3730846669000       5.124824964022392E-002 !
 O          3.1754545780       -2.4454824981        1.7762468462
 C          2.8025434681       -2.0698570659        0.6877922781
 C          3.7724076813       -1.9590249852       -0.4835770791
 C          3.8490244932       -0.5145173487       -0.9414127096
 O          3.3189161501       -0.1910230038       -2.0002827432
 C          4.5264130396        0.4480714708       -0.0795571124
 C          5.1204994989        0.0840956602        1.1394105838
 C          5.7362404922        1.0181371779        1.9380201760
 C          5.7840919519        2.3515737306        1.5403653922
 C          5.2129341933        2.7409692926        0.3518829484
 C          4.5778611747        1.8081466779       -0.4744877658
 O          4.0389916160        2.2529757580       -1.6098642965
 C          1.4171872557       -1.6278932316        0.4347827664
 C          0.8231097743       -1.6171474162       -0.8277430971
 C         -0.4738917783       -1.1731303120       -0.9821885738
 C         -1.1983866666       -0.7119698450        0.1153164301
 N         -2.5147973669       -0.2435421819       -0.0483466428
 C         -2.8325067264        1.0884104897        0.2355692341
 C         -1.8688221082        2.0167938231        0.6082242202
 C         -2.2157879436        3.3331902306        0.8713176465
 C         -3.5277264501        3.7454491439        0.7555905090
 C         -4.4963392978        2.8383147235        0.3528186874
 C         -4.1552841278        1.5250968212        0.0864763301
 O         -5.1613321285        0.6957043570       -0.3411961416
 C         -4.8300678698       -0.6027546854       -0.6360192302
 C         -5.8529557568       -1.4267238315       -1.0676674774
 C         -5.6052811257       -2.7616823370       -1.3500950654
 C         -4.3326595707       -3.2678036000       -1.1799858290
 C         -3.3024267899       -2.4451983613       -0.7502476817
 C         -3.5271208798       -1.0986038870       -0.4941143045
 C         -0.6097889716       -0.7190147922        1.3792891701
 C          0.6764323059       -1.1854616868        1.5347280486
 H          3.4125257590       -2.5608528350       -1.3187164062
 H          4.7492872389       -2.3253779195       -0.1695008294
 H          5.0891984570       -0.9400712674        1.4715556838
 H          6.1833569065        0.7162622317        2.8722550893
 H          6.2716896648        3.0835903310        2.1666487593
 H          5.2361613597        3.7680003061        0.0233836876
 H          3.6285835097        1.4876208302       -2.0806512221
 H          1.3617082385       -1.9561122053       -1.6977244274
 H         -0.9324551899       -1.1657374229       -1.9598098425
 H         -0.8364369766        1.7131615123        0.6844459453
 H         -1.4465745263        4.0319223784        1.1619632284
 H         -3.8034267563        4.7673104152        0.9626699836
 H         -5.5266847656        3.1320544764        0.2325138902
 H         -6.8396711973       -1.0040252147       -1.1693279703
 H         -6.4092706013       -3.3962881898       -1.6873251148
 H         -4.1284286320       -4.3093219785       -1.3743085849
 H         -2.3171500389       -2.8588529760       -0.6027614054
 H         -1.1737583118       -0.3682373155        2.2307713387
 H          1.1392784843       -1.2108584386        2.5098869828
  51
  -86.3726981478000       3.404451545386744E-002 !
 O          3.2377094037       -2.5708235646        1.7286109501
 C          2.8644532145       -2.1517431628        0.6567252578
 C          3.8249143934       -2.0112538780       -0.5191619392
 C          3.8436700893       -0.5745146027       -1.0050884204
 O          3.3722959645       -0.3030617529       -2.1054009141
 C          4.3879939905        0.4448233184       -0.1142148220
 C          4.9690548586        0.1324508929        1.1249191232
 C          5.4447952256        1.1180917508        1.9566503875
 C          5.3566776526        2.4539946526        1.5745032161
 C          4.7979941562        2.7933212252        0.3648767079
 C          4.3113387255        1.8064410917       -0.4986118631
 O          3.7820096436        2.2024805147       -1.6562995938
 C          1.4836141995       -1.6840277918        0.4247020728
 C          0.8769711131       -1.6601904524       -0.8316499815
 C         -0.4135245055       -1.1935703333       -0.9713858553
 C         -1.1188149920       -0.7227402382        0.1348870026
 N         -2.4289095456       -0.2340802831       -0.0165056164
 C         -2.7292218271        1.1003969238        0.2760551115
 C         -1.7587361003        2.0091909791        0.6781041346
 C         -2.0895798421        3.3282941875        0.9484576620
 C         -3.3917521220        3.7637440924        0.8106479502
 C         -4.3663847498        2.8768289814        0.3788984688
 C         -4.0415400163        1.5608354222        0.1059751881
 O         -5.0532268167        0.7538306719       -0.3499642538
 C         -4.7426955753       -0.5515057196       -0.6359550805
 C         -5.7748952904       -1.3576743552       -1.0794310790
 C         -5.5481454374       -2.6976037957       -1.3556048699
 C         -4.2875434644       -3.2266725084       -1.1666632724
 C         -3.2484576408       -2.4221218101       -0.7245327792
 C         -3.4513181253       -1.0706368271       -0.4752917037
 C         -0.5174199342       -0.7441240305        1.3926323124
 C          0.7624830309       -1.2329393497        1.5335103993
 H          3.4908604260       -2.6436701770       -1.3431768113
 H          4.8179439724       -2.3324126271       -0.2041398390
 H          5.0458657365       -0.8939334941        1.4424178554
 H          5.8871061249        0.8548805122        2.9047321302
 H          5.7309003849        3.2272962793        2.2285067657
 H          4.7219265188        3.8208337063        0.0458383857
 H          3.4938957608        1.4014830451       -2.1574176818
 H          1.4006478858       -2.0094394309       -1.7068132553
 H         -0.8822652042       -1.1764528386       -1.9440781737
 H         -0.7326858583        1.6892622709        0.7706599691
 H         -1.3151078777        4.0108928869        1.2619168588
 H         -3.6548554282        4.7878578085        1.0226722947
 H         -5.3890238200        3.1887085256        0.2399105337
 H         -6.7519639184       -0.9169128330       -1.1959190319
 H         -6.3588571631       -3.3181617275       -1.7029908537
 H         -4.0998027225       -4.2722537418       -1.3560034345
 H         -2.2733015272       -2.8538653494       -0.5620182545
 H         -1.0667666596       -0.3881668986        2.2514127536
 H          1.2346080405       -1.2692882542        2.5038001722
