70
 energy: -98.234040650929 gnorm: 0.000027913853 xtb: 6.7.1 (edcfbbe)
C           -0.22655772928874        3.22213052522620       -2.89611065718473
C            1.04726491134776        2.78624347587787       -2.18558844690787
C            1.83154187879361        1.76240092431008       -3.00303821791157
C            3.02580711949888        1.21447535367857       -2.22708715798161
O            2.51952966404121        0.56681353823152       -1.08199491017166
C            3.37114274874153       -0.01244071799565       -0.19759523217597
C            4.73896409069701       -0.15774711865883       -0.37928700015232
C            5.49909860138151       -0.82493800656461        0.56965310275056
C            4.90488440718385       -1.35642113718112        1.69891506756309
C            3.54167416601494       -1.20719020060933        1.89130765183416
C            2.76219811685058       -0.52751150716699        0.96580886844637
C            1.32220559356832       -0.31266582429576        1.15209936636042
C            0.41828538981344       -1.41402204639288        1.13722199300527
C            0.86009174462377       -2.73374062158824        1.01880033204198
C           -0.03648510040069       -3.80171479617430        1.05050163595718
C           -1.38372764572578       -3.56358775663753        1.20591469807040
C           -1.85327536494132       -2.25103618846977        1.28257612046072
C           -0.98259649398903       -1.16542442099367        1.20756857306780
C           -1.46851688670276        0.18183267937537        1.18899402266062
C           -2.89799698687586        0.40612596282015        0.95166418807754
C           -3.73738399636854        1.04989559394660        1.85036590822778
C           -5.08323130108777        1.21604147029205        1.56801685990864
C           -5.59907224256504        0.75030439300536        0.37257586453777
C           -4.77876507594562        0.11715603998034       -0.54974064597026
C           -3.43319140937775       -0.06112167699724       -0.26895939024098
O           -2.52156028420861       -0.62241660634757       -1.10062790731595
C           -2.91599574391442       -1.37746140762856       -2.22300854939215
C           -1.74734051157774       -2.30433368955473       -2.55630793505520
C           -0.46429536584540       -1.51989648468613       -2.82385558884443
C            0.74050963254626       -2.44047616378212       -2.96083413425048
C           -0.56288851280611        1.28031647331604        1.28482272123795
C           -1.00133972504477        2.60553219166207        1.31532147769939
C           -0.10162109002773        3.66389698940695        1.44721408763411
C            1.24767383265222        3.41105055416430        1.54728118334376
C            1.71547836675481        2.09808667993368        1.47108707148638
C            0.84000965362080        1.02502065231169        1.30630191023710
H           -0.88283317432201        2.36871377865375       -3.05082251958805
H            0.00148305411650        3.66301483107846       -3.86481131520163
H           -0.75925861422095        3.95757635312550       -2.29828636115253
H            0.78868353152990        2.34022622064543       -1.22527193145714
H            1.67771839267151        3.65742329636480       -1.99184705895450
H            2.19098862820762        2.21101160882202       -3.93141097022294
H            1.17535883118690        0.92786637028702       -3.25332270960653
H            3.69934992191869        2.03224887418834       -1.93277687636086
H            3.58701236732636        0.50603783469723       -2.85379995246097
H            5.22197998165468        0.24130963017795       -1.25791920678279
H            6.56301514080509       -0.92878769950805        0.41589434331510
H            5.50045189603034       -1.87712015845831        2.43343212487323
H            3.07118114676015       -1.59600171374235        2.78277801393974
H            1.91446431333268       -2.93023501433775        0.89551955878792
H            0.33507622813269       -4.81211481485840        0.95903584535173
H           -2.08452356691314       -4.38446933908532        1.25440814618255
H           -2.91301560604955       -2.07450488155058        1.39562560221488
H           -3.33283881281672        1.39122445611447        2.79221005304796
H           -5.72756170931900        1.70514257037377        2.28297715234304
H           -6.64686827147307        0.88119500297853        0.14611211898383
H           -5.19191726916241       -0.22270297137334       -1.48755404396821
H           -3.81204765336444       -1.97065859994955       -1.99907368949587
H           -3.13760023831950       -0.71001390057248       -3.06883797267029
H           -1.58458819858732       -2.96540811835340       -1.70271595489376
H           -2.01071413683176       -2.91442295162773       -3.42254684850107
H           -0.58630618924462       -0.92976156960269       -3.73616096811398
H           -0.29716217237285       -0.83414101853360       -1.99205141143280
H            0.88161179925661       -3.01042618902293       -2.04514021561979
H            0.60475983319332       -3.13753701158531       -3.78580140227028
H            1.64253206724028       -1.86118269562934       -3.14251058511403
H           -2.05606666999226        2.81744059461452        1.23057600044959
H           -0.47367553586055        4.67751871309776        1.47484359830671
H            1.95125557756798        4.22135920910983        1.66934569374959
H            2.77700217337402        1.91052748521321        1.53616990464474
