70
 energy: -98.233717777622 gnorm: 0.000069154525 xtb: 6.7.1 (edcfbbe)
C           -0.61063558731410        1.42798018294484       -3.52855756356164
C            0.85379972184929        1.44675238639181       -3.11145794483614
C            1.52361566389597        0.08830084634955       -3.31685802065017
C            2.83777565353721       -0.00999147497468       -2.54610247310347
O            2.48467340547746        0.03378194280110       -1.18336978759963
C            3.42239610457820       -0.06611121361289       -0.20953756000585
C            4.77938306211283       -0.27114649077800       -0.40423066743183
C            5.61885885808864       -0.40648059904362        0.69215477932363
C            5.11429955397401       -0.34749078114982        1.97748025160054
C            3.75855972352200       -0.13736495925350        2.17745280501365
C            2.90382651947982        0.01851876307601        1.09895137450089
C            1.45958131299605        0.27097753330364        1.22229622975087
C            0.57527191646792       -0.77243519698455        1.62054935863073
C            1.04732469772391       -2.00716971616296        2.06905634377374
C            0.16874961585345       -3.01450070045275        2.47130982385160
C           -1.18934851635281       -2.79672197888769        2.43255680636521
C           -1.68721879445639       -1.57972012644887        1.96131912841468
C           -0.83280681479040       -0.56776091553202        1.52497334579433
C           -1.33544596000301        0.65976324282632        0.99116879598727
C           -2.77906850081211        0.78986617555019        0.75461118266622
C           -3.57076686106331        1.67203356852425        1.47651032594142
C           -4.93799930076477        1.73440460512739        1.26679856319337
C           -5.52393283283183        0.90949193566772        0.32500560460796
C           -4.75133569582939        0.03486932875479       -0.42407589860927
C           -3.37897147278815       -0.02412851099004       -0.22729104632995
O           -2.51791910772788       -0.79290574739337       -0.94575024148509
C           -3.02578891467284       -1.78891093471214       -1.80544884342732
C           -1.83900102165639       -2.54061943065915       -2.40218541481091
C           -0.95558231719916       -3.15973366170068       -1.32128132544987
C            0.22891914337499       -3.90910861582333       -1.91584635715575
C           -0.45213445905830        1.72890537600754        0.66223779583268
C           -0.91771654863042        2.94454135367027        0.15810981374314
C           -0.03929477453349        3.98717283569629       -0.14274999837307
C            1.31336779834867        3.82479552987096        0.05136917026435
C            1.80773496443571        2.60505001804942        0.51986631809413
C            0.95348088433536        1.54059571235806        0.80549846231824
H           -1.16981168070511        0.74241726615303       -2.89586550635774
H           -0.71539605144374        1.11403965009071       -4.56580341924994
H           -1.04609461815255        2.41862092215654       -3.42180314019705
H            0.91486771376953        1.70734212922214       -2.05464778604633
H            1.39318843696019        2.20871329625937       -3.67946181075874
H            1.70615268165278       -0.09657632625040       -4.37699860547952
H            0.86308899699467       -0.69207467924397       -2.93489399375007
H            3.50281776029275        0.82753196986164       -2.80035422806045
H            3.35223134021456       -0.95295306146607       -2.78138178764397
H            5.18882007125418       -0.32924520938217       -1.40131116836859
H            6.67534486320347       -0.56322867429388        0.53166085175159
H            5.77357846804756       -0.45751496180521        2.82523673055650
H            3.35730163767715       -0.07238462690543        3.17845131377956
H            2.11162833856343       -2.18490930036385        2.10371324702461
H            0.56387912439295       -3.95879693189368        2.81610968087405
H           -1.87781818911522       -3.56346432072575        2.75651168082622
H           -2.75519143475515       -1.42213703636195        1.93213180715037
H           -3.10533765464733        2.29236332784282        2.22867540785664
H           -5.54296566310215        2.41653679314641        1.84473917747055
H           -6.59099226341015        0.94329471717781        0.16206636095516
H           -5.22839808424027       -0.59137798536914       -1.16207677019993
H           -3.66721697193025       -2.48012300686153       -1.24014829716894
H           -3.62184746681151       -1.33586605507571       -2.61114605489800
H           -2.22154960839358       -3.31622103393027       -3.06916596295971
H           -1.24728210265263       -1.84188907206596       -2.99630442414071
H           -0.59301776322037       -2.36622961780709       -0.66721683185449
H           -1.55289381440579       -3.84375320504723       -0.71385161794675
H            0.84019741244724       -4.33449099307384       -1.12379093911893
H           -0.10941397880297       -4.71614545586376       -2.56316192786383
H            0.85098243179711       -3.23709257200019       -2.50308793372328
H           -1.97567620461287        3.07826230838476       -0.00922980932354
H           -0.43063919306320        4.91807803829220       -0.52602778402629
H            2.00038835604490        4.62912030524045       -0.16694329534414
H            2.87171863549109        2.48231291022007        0.65975377972027
