  70
        -98.29840505
 C         -0.3235936255        1.4860436284       -3.7392520334
 C          1.0856030731        1.3600849668       -3.1780907339
 C          1.6448687153       -0.0519810774       -3.3456283930
 C          2.9122060752       -0.2509121426       -2.5184505191
 O          2.5113671907       -0.1955436157       -1.1688912197
 C          3.4331730016       -0.1508869179       -0.1738467441
 C          4.7997593803       -0.3343948717       -0.3254727671
 C          5.6284117356       -0.2818409781        0.7857069251
 C          5.1072393797       -0.0524671453        2.0445053672
 C          3.7413679598        0.1332714809        2.2000088277
 C          2.8993259822        0.0923651167        1.1043655044
 C          1.4355920191        0.3016575734        1.1877123344
 C          0.5961766941       -0.7427721551        1.5911395477
 C          1.1129969968       -1.9915648692        2.0256038945
 C          0.2858924802       -2.9981612991        2.4178479351
 C         -1.1116426466       -2.8135121837        2.4109313232
 C         -1.6469799664       -1.6362739267        1.9879618467
 C         -0.8218561258       -0.5700382571        1.5430532624
 C         -1.3626661028        0.6244760934        1.0487559323
 C         -2.8291640566        0.7343545351        0.8837368538
 C         -3.6136490651        1.4918532000        1.7360097866
 C         -4.9907582048        1.5320188274        1.5822275487
 C         -5.5851750127        0.8067720157        0.5676145105
 C         -4.8164765658        0.0509774806       -0.3043120141
 C         -3.4361503175        0.0139267439       -0.1597413929
 O         -2.5828763241       -0.6673068028       -0.9706114455
 C         -3.0982304703       -1.6353714486       -1.8573606196
 C         -1.9191386500       -2.3961438640       -2.4581578351
 C         -1.0701881550       -3.0676685605       -1.3804557381
 C          0.0952050992       -3.8463203446       -1.9745138960
 C         -0.5231375368        1.6763148150        0.6640642187
 C         -1.0375331723        2.8963573525        0.1521123278
 C         -0.2089611050        3.9102330423       -0.2182270470
 C          1.1882963347        3.7693193760       -0.0938263381
 C          1.7218598382        2.6092432579        0.3770445546
 C          0.8943876471        1.5191583865        0.7551638955
 H         -1.0060667621        0.8482741357       -3.1829714789
 H         -0.3503650477        1.1973073033       -4.7880874073
 H         -0.6737470611        2.5118902289       -3.6541585210
 H          1.0647996995        1.6019106157       -2.1155603249
 H          1.7465137324        2.0745626186       -3.6748469546
 H          1.8596599921       -0.2589472875       -4.3956974497
 H          0.9039635747       -0.7707073162       -2.9919382599
 H          3.6426365881        0.5405313943       -2.7372892759
 H          3.3710620677       -1.2252323388       -2.7428509927
 H          5.2247893042       -0.5220653959       -1.2997487648
 H          6.6913941912       -0.4245313977        0.6575771084
 H          5.7589542655       -0.0145360722        2.9042095773
 H          3.3223468719        0.3212235469        3.1780207210
 H          2.1847477897       -2.1258454839        2.0389718805
 H          0.6922038314       -3.9447645465        2.7439650766
 H         -1.7524426259       -3.6170188157        2.7447602266
 H         -2.7178137377       -1.4927999950        1.9883577479
 H         -3.1375294533        2.0388533639        2.5368113564
 H         -5.5935215035        2.1198074796        2.2577319356
 H         -6.6580773720        0.8251557837        0.4441568618
 H         -5.3015443811       -0.5004751857       -1.0948707185
 H         -3.7562746355       -2.3289282372       -1.3145144748
 H         -3.6799110614       -1.1536804724       -2.6573722000
 H         -2.3093904792       -3.1431163827       -3.1531246501
 H         -1.3009968547       -1.6954552203       -3.0222870837
 H         -0.6882449420       -2.3010954110       -0.7056302892
 H         -1.6982890751       -3.7432939535       -0.7949620611
 H          0.6690554863       -4.3247396472       -1.1846993684
 H         -0.2611076090       -4.6143728100       -2.6582259303
 H          0.7588193079       -3.1808896707       -2.5214642884
 H         -2.1085222485        3.0035284028        0.0613895086
 H         -0.6136656604        4.8331004665       -0.6080490990
 H          1.8301190593        4.5899141062       -0.3806255457
 H          2.7924872966        2.4989106362        0.4731601471
