70
 energy: -98.298489379153 gnorm: 0.000030323941 xtb: 6.7.1 (edcfbbe)
C           -0.46357513228485        1.40693868127581       -3.53437783848816
C            0.99432180258994        1.32385419074997       -3.10246588629659
C            1.56914825054611       -0.08000592931961       -3.29026345178136
C            2.86465868591297       -0.26193165666220       -2.50323567966602
O            2.49571608020590       -0.21626632242991       -1.14429861962516
C            3.43405428003555       -0.15855739972664       -0.16611509653314
C            4.79826892662728       -0.34082540884422       -0.33565195643880
C            5.64080322572018       -0.27813883301616        0.76467039598169
C            5.13543181998014       -0.03937299548452        2.02819235561108
C            3.77147569689253        0.14779102557339        2.20093230491694
C            2.91627424628967        0.09687056110724        1.11658600441136
C            1.45289872684185        0.31043624182558        1.20199696078101
C            0.60717884397152       -0.73768689727412        1.58104563227239
C            1.11783267206545       -1.98908464620176        2.01498226840857
C            0.28499814738579       -2.99833214441220        2.38764582712949
C           -1.11233300765081       -2.81397984230911        2.35917992934345
C           -1.64158678829337       -1.63475569489144        1.93405573766809
C           -0.80998603249989       -0.56515438460786        1.51010217166771
C           -1.34253045409798        0.63285639454290        1.01553202033447
C           -2.80545336828448        0.74870858715514        0.82617124634888
C           -3.59489629193218        1.51297356587355        1.66870376895856
C           -4.96839045614906        1.57107205394996        1.49390811076739
C           -5.55561944964490        0.85625185119664        0.46768711591289
C           -4.78257884808117        0.09192955251505       -0.39246548610833
C           -3.40477108867395        0.03769493130817       -0.22758031551040
O           -2.55075016612312       -0.65248552489622       -1.03225627315962
C           -3.07095878326801       -1.64394218517413       -1.89104440004270
C           -1.90002449260277       -2.42364060994738       -2.48371052433868
C           -1.01283291981921       -3.03030494725170       -1.39837269641457
C            0.11171928334177       -3.87205484488164       -1.98595307056609
C           -0.49700279244517        1.69064093131959        0.66064529051713
C           -1.00222346071256        2.91613717361358        0.15270015176745
C           -0.16773447035389        3.93588759600113       -0.18689272013241
C            1.22686374843916        3.79496634024935       -0.03647767573023
C            1.75238319962731        2.62866687097869        0.42803041019746
C            0.91862080900489        1.53361408369750        0.77674258898825
H           -1.07747192728039        0.77297079768008       -2.89870586889688
H           -0.58114561762795        1.08865026196773       -4.56894754271142
H           -0.82579557751089        2.42831522566510       -3.44400757819161
H            1.06202799067314        1.58804331532001       -2.04683670105609
H            1.59238815460548        2.04145906269408       -3.66983293716164
H            1.74949008772424       -0.28577993829673       -4.34692207576931
H            0.85247791566984       -0.80843960092529       -2.90841871299964
H            3.57695935869017        0.54127571832057       -2.73784436503427
H            3.33172048465265       -1.22847332507396       -2.74324187078297
H            5.20928467302734       -0.53510925008487       -1.31471641717148
H            6.70228825323371       -0.42083839192055        0.62461794531642
H            5.79831886815270        0.00533354103610        2.87900511706140
H            3.36591858354732        0.34450898275973        3.18284443683018
H            2.18948851243270       -2.12163368936153        2.04660163351288
H            0.68634512679764       -3.94613855273921        2.71645342215761
H           -1.75775061359303       -3.61939826357248        2.67944727123303
H           -2.71237363511015       -1.49147059642621        1.91810468334801
H           -3.12369033723044        2.05395827494695        2.47665266714110
H           -5.57431551911074        2.16627629067016        2.16005543909167
H           -6.62592077335732        0.88916987811070        0.32643947072001
H           -5.26195256867746       -0.45270681519138       -1.19124086611464
H           -3.72468931960405       -2.32180273251037       -1.32385897973659
H           -3.65912831821776       -1.18446559739816       -2.69918568116757
H           -2.30305278842548       -3.21014780667949       -3.12560470945928
H           -1.30630992027878       -1.74980414945246       -3.10356625166183
H           -0.58966463348764       -2.22422077608666       -0.79796565993373
H           -1.62342033104291       -3.64992681487688       -0.73730920506341
H            0.73295751899615       -4.27547852457705       -1.19012125566081
H           -0.28898013708462       -4.70122666256621       -2.56625709385358
H            0.74098132524994       -3.27074021210015       -2.63838104952535
H           -2.07108763829883        3.02391326131517        0.04119442083238
H           -0.56615172950209        4.86357907696878       -0.57172449852899
H            1.87314175245091        4.62040262008787       -0.29811462555620
H            2.82115718354309        2.51687585891880        0.54192621205131
