93
 energy: -147.978081982275 gnorm: 0.000038797253 xtb: 6.7.1 (edcfbbe)
N            1.97461198784397        5.80775284012825        1.68387775331582
C            1.86190161913324        4.71242277949903        1.36498606799473
C            1.73224944896646        3.36199531312306        0.96372785929712
C            0.46787219355254        2.78720444767317        0.86161231410085
C            0.36206941880384        1.45836862679781        0.47267648651105
C           -0.94732401746154        0.81216258095448        0.35641380686630
N           -2.02463520440305        1.58049603435041        0.29441513389088
C           -3.18455186498332        0.93298184621640        0.17582913985484
N           -4.32578627302612        1.67553130268752        0.12989118727015
C           -5.62547850689828        1.20200508411092        0.33200549212747
C           -6.06908273649631       -0.05578159938976        0.70380609727017
C           -7.43237577842827       -0.24294419258452        0.85813812262146
C           -8.33711232829203        0.79400597702352        0.66129406590528
C           -7.89681148256532        2.05905992230105        0.32094932878589
C           -6.53480486357624        2.26590905027718        0.16083716185075
C           -5.75692946623243        3.43624523754532       -0.15450466929868
C           -6.10700895930128        4.74953890387958       -0.43106386583255
C           -5.10192454332822        5.65608262287937       -0.70969847633843
C           -3.77012197943626        5.25741723861678       -0.72320703657766
C           -3.40132934358652        3.95081441697750       -0.45123348071403
C           -4.40334637979639        3.04233612000819       -0.15531671006554
N           -3.29975397737758       -0.39042072150363        0.09553066008649
C           -2.16025118820865       -1.07098512891144        0.16920984551797
N           -2.21489760396445       -2.43180998030818        0.09527106622901
C           -3.26914332969563       -3.19057299230247       -0.41625731515032
C           -4.43988396377677       -2.78440188394737       -1.03366333497956
C           -5.31224973443920       -3.76470554409641       -1.47511751157118
C           -5.02671656100823       -5.11675038701574       -1.32051252579635
C           -3.84534067817591       -5.52664486812872       -0.73195155954993
C           -2.95875014750922       -4.55963866112138       -0.28153653136739
C           -1.66321772832939       -4.63572351209098        0.34317225797984
C           -0.87321468780986       -5.70358409249427        0.74306657981491
C            0.33405976673758       -5.43687428350275        1.36003535583173
C            0.74656792405374       -4.12746876677674        1.57960242852464
C           -0.02188992092267       -3.04897666329289        1.17761955016130
C           -1.22883647728631       -3.31049115576599        0.55142889721509
N           -0.96050246707820       -0.51253185472024        0.31117626000986
C            1.50975560218480        0.72599906724574        0.17915141987720
C            2.77380443051376        1.29152606676309        0.26369133053479
Si           4.32355420447940        0.29669364543758       -0.20448449305660
C            3.91060874717341       -1.55047426409675       -0.26119909869847
C            4.44682772125389       -2.44664701587866        0.65803788980096
C            4.15363962198670       -3.79709435730567        0.59076548082071
C            3.30598417620093       -4.27507971729655       -0.39426737861545
C            2.76006630875251       -3.39681461394805       -1.31499615252680
C            3.06775920146796       -2.05057350440316       -1.25157265722416
C            4.90947482513748        0.83780610897036       -1.92289726109072
C            5.71763680235588       -0.00932422135966       -2.67741153950323
C            6.18411131936832        0.37060156564694       -3.92232663354290
C            5.84731778474342        1.61090085646706       -4.43875047442200
C            5.04051308976593        2.46368966390302       -3.70470025882226
C            4.57800248095172        2.07817900673423       -2.45925589173317
C            5.65607668882006        0.65210159320000        1.09249456507084
C            6.98790126990402        0.82920648631630        0.73052131621582
C            7.95939181210443        1.07286597218255        1.68460265968932
C            7.61347142493417        1.14326631698186        3.02360219973941
C            6.29236470790929        0.97015957634517        3.40192046469228
C            5.32568493685983        0.72734792590499        2.44356974762052
C            2.87494214880282        2.61666378732983        0.66806740580278
H           -0.41963241858315        3.35589219140093        1.09356621039820
H           -5.37890392749107       -0.86404467562869        0.87323790579262
H           -7.79688798462914       -1.21913864401585        1.14130583794767
H           -9.39349932625127        0.60896340477295        0.78702913739069
H           -8.59256053246085        2.87321588758629        0.18682697564836
H           -7.14347124599858        5.05066950091336       -0.42917333930223
H           -5.35070772774446        6.68470211833252       -0.92389317301834
H           -3.00248251770614        5.98200078956497       -0.95051367725070
H           -2.36827741749616        3.64919425973227       -0.46994474486341
H           -4.66571974420105       -1.74069019616456       -1.17035767157598
H           -6.23415993909159       -3.46815191421593       -1.95265589445684
H           -5.73347006016850       -5.85254776271673       -1.67420482307695
H           -3.61068656290585       -6.57492834308289       -0.62679951296403
H           -1.20396651221553       -6.71830237358300        0.58136421201456
H            0.96264035997562       -6.25286576001433        1.68442914742126
H            1.68764621302746       -3.94248490164962        2.07456318384572
H            0.30818137059942       -2.03915763317492        1.35067344776305
H            1.39544123110389       -0.30324611843042       -0.12303698185304
H            5.10771655409517       -2.07895821573541        1.43056812743173
H            4.58690707631778       -4.47916054380224        1.30874728672190
H            3.07114731174710       -5.32792873282153       -0.44607459001546
H            2.09690114582879       -3.76485271982590       -2.08441708983134
H            2.65689104688449       -1.37395512915211       -1.98823596111627
H            5.97814881768103       -0.98080705190429       -2.28073789517711
H            6.81092001171728       -0.30033270398262       -4.49216584239950
H            6.21058016188511        1.91059862439127       -5.41096888178229
H            4.77180094931085        3.43113901394579       -4.10400824003122
H            3.94579580644939        2.74957996952115       -1.89541292874960
H            7.26216110614093        0.77904547237883       -0.31369177854665
H            8.98836512006648        1.20949736756966        1.38445781134404
H            8.37037803172600        1.33437578937033        3.77025598689247
H            6.01688403285692        1.02598846159769        4.44531960092264
H            4.29527181109571        0.59525463328036        2.74409866292866
H            3.84701792467843        3.08008241570927        0.76283645140524
