93
 energy: -147.890842908785 gnorm: 0.000109846144 xtb: 6.7.1 (edcfbbe)
N            1.90072926566595        5.97299874122976        1.08577213816988
C            1.80929823936604        4.84609668350291        0.89110917899679
C            1.69892003517338        3.45993733577984        0.64064162366231
C            0.44605745090693        2.87641478443569        0.56556816414637
C            0.33007177112039        1.49603238611099        0.32113146474537
C           -0.92506964897817        0.85395566705841        0.23718993793074
N           -2.08387687381160        1.57311506298617        0.25953471027791
C           -3.21186217508964        0.93644858251769        0.12757012735568
N           -4.37989751643716        1.65778891094344        0.10517143160812
C           -5.65485714812446        1.16713996589569        0.35959142458324
C           -6.06100324406577       -0.10300605345061        0.73773385662496
C           -7.41446393699716       -0.32064243935852        0.92684335692735
C           -8.34369964181274        0.70219167264197        0.76671244897047
C           -7.94087377382511        1.97911709929477        0.41789011356273
C           -6.59022559188027        2.21699045124459        0.21681132271627
C           -5.84108482484945        3.39610058313169       -0.13228361655783
C           -6.20461108451416        4.70864753265674       -0.39097236307202
C           -5.21280042615295        5.61931205801243       -0.71001749547248
C           -3.87927680729728        5.22900269905276       -0.78165882563745
C           -3.49615355641571        3.92290650376224       -0.53206038504745
C           -4.48313932551988        3.01239502757207       -0.18974659599307
N           -3.31877854834160       -0.40663573309042        0.01823550773113
C           -2.15146267401594       -1.08155199014311        0.05437620065073
N           -2.20794933271086       -2.45188162869268        0.00922622758872
C           -3.24823603283013       -3.22231458546161       -0.49393055683137
C           -4.41956248597200       -2.83030186579651       -1.12219913588089
C           -5.29242490692359       -3.82075609051032       -1.53653023355224
C           -5.00271793635312       -5.16889230870247       -1.34988829321933
C           -3.82253021553322       -5.56540897889512       -0.74725720734273
C           -2.93605458734491       -4.58925956111761       -0.31840692826424
C           -1.64896671489369       -4.64205241187269        0.32523392408173
C           -0.84655538160743       -5.68573628606209        0.76118028472532
C            0.34822402172187       -5.38350179676776        1.38916173499679
C            0.74073661329353       -4.06337389937827        1.58572844958374
C           -0.03981057329375       -3.00783383565213        1.14966201833315
C           -1.23120993079298       -3.30579260163168        0.50868810255271
N           -0.98957335111967       -0.50323286098049        0.12576260962504
C            1.51645629278614        0.74552280666384        0.14806314713820
C            2.75818266695605        1.33249161142790        0.20750565207196
Si           4.33123448223551        0.31726133605893       -0.11811223844568
C            3.94444273905986       -1.53770097761612       -0.12420953264943
C            4.48244407193506       -2.39792063449434        0.82744645600477
C            4.22821475595232       -3.75739786100786        0.78339545588179
C            3.41769471824280       -4.27980689329316       -0.21026675207771
C            2.86727887258741       -3.43657861506286       -1.16096958662237
C            3.13630825619199       -2.08123343485242       -1.12000222776754
C            5.04317063683624        0.76485597690058       -1.81685663443961
C            5.93273201659764       -0.10599231437258       -2.44219921654401
C            6.49390728122524        0.20541967542602       -3.66679516860731
C            6.17063314276535        1.39772344744952       -4.29336444711421
C            5.28228632947728        2.27132765842007       -3.68951267185598
C            4.72550420463748        1.95512006315473       -2.46313063631607
C            5.57403890210303        0.73287374318601        1.25089292892057
C            6.91769632123759        0.95259308702729        0.96547105901233
C            7.82129238503919        1.23866819551013        1.97321176019221
C            7.39327789154862        1.31172954693285        3.28805241416275
C            6.05814345701597        1.09879877414800        3.58907210255994
C            5.15933210413655        0.81365722798813        2.57776998214100
C            2.86435051433824        2.69944441561484        0.46736433794850
H           -0.44489737435186        3.46735658741025        0.71398496533386
H           -5.34450117508886       -0.89470697781809        0.88155167409929
H           -7.75255735651262       -1.30512655259049        1.21337156338941
H           -9.39130155401925        0.49657914614610        0.92794222013880
H           -8.65933833816890        2.77663048563885        0.30562177323892
H           -7.24001226941955        5.00957634060341       -0.34308182661980
H           -5.47518185202026        6.64645007774935       -0.91418580375671
H           -3.12665068921457        5.95764789118795       -1.04207486207041
H           -2.46538267663303        3.61697372058519       -0.60307414737526
H           -4.64223831669375       -1.78828608973350       -1.28235873144626
H           -6.21518626129721       -3.53869368303598       -2.02086208707450
H           -5.70684077382104       -5.91368168813858       -1.68941317387994
H           -3.59169244454207       -6.61121563371890       -0.61333789891318
H           -1.15561725770735       -6.71003179163953        0.61825162241721
H            0.98281165986100       -6.18185144527666        1.74380668426667
H            1.67022038626202       -3.85434167879694        2.09217262185970
H            0.26389539426903       -1.98632767862797        1.31042978810678
H            1.41197243995056       -0.31049722657698       -0.04915277595638
H            5.11460278664652       -1.99546017670254        1.60661552314892
H            4.66314796588953       -4.41140200822701        1.52620054606254
H            3.21401503613272       -5.34001192047529       -0.24486094971240
H            2.23161334363202       -3.83934744658397       -1.93629627650484
H            2.72116266851812       -1.43114487557337       -1.87746416490514
H            6.18354581468646       -1.04060489949502       -1.95964259038139
H            7.18427602014734       -0.48183839837493       -4.13485031733056
H            6.60754224189823        1.64324479604250       -5.25045556098202
H            5.02326900348636        3.20095678936426       -4.17561991333662
H            4.02950785261957        2.64060491239025       -2.00132633002915
H            7.25606440200486        0.90102024624693       -0.05967981229134
H            8.86134235504373        1.40703454227662        1.73308273304361
H            8.09716508789898        1.53751976745780        4.07588382207439
H            5.71850101696945        1.15792012677572        4.61320563277301
H            4.11702026282757        0.65360357271628        2.81625277982171
H            3.83050089381593        3.17470367410032        0.54362214168197
