130
 energy: -199.095466591742 gnorm: 0.000074093405 xtb: 6.7.1 (edcfbbe)
C           14.88226402853106        2.98739184939059       -0.05456220081620
C           15.03624114637401        1.80068771943813       -0.75261594926988
C           14.03867861422868        0.84563812496425       -0.73859170005721
C           12.86723174350456        1.06358131997636       -0.01321537285962
N           11.85562998287050        0.09723472170774        0.00806996387072
C           12.18764483257351       -1.26161645420836        0.03162622099156
C           13.29183371175984       -1.70721680093810        0.75844312147063
C           13.61889046347042       -3.04892907215362        0.77452997815965
C           12.85102071780682       -3.96741123229651        0.07737706433962
C           11.75069070238108       -3.53080786958266       -0.64225607443416
C           11.41990427354340       -2.19021527206240       -0.67139081512710
C           10.51411492207578        0.49002094838836        0.00274508131786
C            9.56044720445430       -0.22161467208310        0.73194473757727
C            8.23805636419464        0.16537929007087        0.71855128778493
C            7.81862810731970        1.28087267754382       -0.00797256707643
C            6.41417600113912        1.69556395562587       -0.01081113087255
C            6.06944301497756        3.04885461677203       -0.01268358856252
C            4.74913219120957        3.44910607185466       -0.00413986480308
C            3.71209796927849        2.51880096488377       -0.00290166864575
N            2.42826643383168        2.85684644667642        0.00296523391937
C            1.44916347366003        1.96325465767039        0.00050943800649
C            0.07887432713823        2.35692591762545        0.00802932394251
C           -0.24484162326302        3.72518928071778        0.01927113731959
C           -1.54724141937874        4.14271820278687        0.03048770757291
C           -2.59162635159345        3.20349063832961        0.03795899035420
C           -3.99346458012652        3.63248193147159        0.05772137456269
C           -4.42402236384119        4.72810848385828       -0.69000404154701
C           -5.74857246108105        5.11035367105493       -0.69647457899265
C           -6.68999185104459        4.41453623138526        0.06313948860910
N           -8.03604198275116        4.78980227173053        0.05453858871729
C           -8.38877745295868        6.14163577232491       -0.02268352171230
C           -9.50315957866174        6.54041848476018       -0.76077536687355
C           -9.85063632255930        7.87533311195418       -0.82983080742300
C           -9.09321116543705        8.83293596948931       -0.17525788408836
C           -7.98298031062954        8.44265992350253        0.55562560401455
C           -7.63194321522911        7.10938963446591        0.63779468402127
C           -9.03299571072228        3.80974112386416        0.12273506568733
C           -8.87086305073891        2.58873034546776       -0.53214858267332
C           -9.85336859956701        1.62115676622757       -0.45474317740637
C          -11.01389618125777        1.85510151690569        0.26469854440928
C          -11.18294189735094        3.06831600236757        0.91172154181065
C          -10.20213127093617        4.03876094523546        0.84813024262978
C           -6.26170549438527        3.33059925023585        0.83085816004127
C           -4.93909746346502        2.94519082666051        0.81935110826584
C           -2.27718373702012        1.85620620775711        0.02273422528663
C           -0.95751853614666        1.39466776881623        0.00516155446513
C           -0.61939162685299       -0.01011571757884       -0.01755630344326
C           -1.58516126083695       -1.02118754369387       -0.03446620067563
C           -1.25296518512989       -2.36411699368178       -0.04887187579625
C           -2.30702191284585       -3.38321610474896       -0.06506581582835
C           -3.46312687024056       -3.20233902056586       -0.82478436352906
C           -4.46666554676948       -4.14628043262007       -0.83139197589362
C           -4.35439162664442       -5.30419293181425       -0.06054045723678
N           -5.38238639020796       -6.25065961499436       -0.04679826813078
C           -6.71658295141061       -5.83335777545174       -0.11278185037014
C           -7.12694453725985       -4.66848678440751        0.53587178844318
C           -8.44296336916572       -4.25620462891348        0.46066200402902
C           -9.37179729837290       -4.99862225843999       -0.25011300943105
C           -8.97117003752042       -6.15966984187559       -0.89083952873558
C           -7.65538758107486       -6.57525095842825       -0.82963025705117
C           -5.07926191653966       -7.61462877105754        0.03104568573608
C           -3.96927354289614       -8.13165513039711       -0.63683392546116
C           -3.67276145538092       -9.47808422886533       -0.55448939798902
C           -4.47706777727871      -10.33042812199019        0.18422836373662
C           -5.58281107343334       -9.82259202486731        0.84649611599858
C           -5.88324483653074       -8.47630299201142        0.77707898481136
C           -3.19799696854597       -5.49459026897896        0.69703498704100
C           -2.19142876530706       -4.55268012158991        0.68573674504345
C            0.10400004436649       -2.72626086493251       -0.04243000535389
C            1.07431655029325       -1.76217028533680       -0.03175036145389
C            0.74075765740047       -0.39658254373568       -0.02010696503688
C            1.78403552793563        0.57684825347929       -0.01016776851166
N            3.05986170901034        0.22492803721076       -0.01199387280171
C            4.05528848705128        1.11041776736002       -0.00617548769609
C            5.39393748458120        0.74527553577073       -0.00583082309491
C            8.77937044553807        1.99063876241933       -0.72980215958134
C           10.10140751590695        1.60212852231864       -0.73235642589314
C           12.71872779160000        2.25879537429839        0.69059138697211
C           13.71893815055675        3.21080243548328        0.66378262249721
H           15.66307598623668        3.73249600708999       -0.07028829155707
H           15.93725160724093        1.62016075641899       -1.32032931515207
H           14.15681186256006       -0.07436798363412       -1.29226267409439
H           13.88616143933523       -0.99457549578306        1.31147786751731
H           14.47528111120366       -3.38065586588569        1.34309672617387
H           13.10827781459104       -5.01555596158286        0.09479394562531
H           11.14937629800554       -4.23885681091873       -1.19340936391902
H           10.56804156835278       -1.85097119553411       -1.24236477964211
H            9.86906130078787       -1.07646488180807        1.31602228503659
H            7.52089980387593       -0.38578080012454        1.30842914384656
H            6.84698267263236        3.79726724577086        0.00735654369468
H            4.48867173778625        4.49627066378107        0.00600064281678
H            0.56798480438841        4.43571693451173        0.02351587737856
H           -1.77863630481536        5.19713510524343        0.05858461659751
H           -3.71605055910823        5.26540104495011       -1.30371284804206
H           -6.06784701174684        5.94711708728313       -1.30054021023407
H          -10.08951445104433        5.79679977496209       -1.28055973771142
H          -10.71483172961414        8.17066740900021       -1.40659188804083
H           -9.36626472063647        9.87555419501581       -0.23421097968712
H           -7.38979672192667        9.18162322628474        1.07406219577256
H           -6.77236391116801        6.80643618764514        1.21764091822271
H           -7.97194261000169        2.40789082185101       -1.10318959379969
H           -9.71495030903845        0.68063423059094       -0.96773229076518
H          -11.78111618122485        1.09785007730214        0.32039335576196
H          -12.08234256401718        3.25793534212320        1.47900204491426
H          -10.33189670946501        4.97947863944406        1.36298570283116
H           -6.97648830469512        2.79644531822181        1.43980330008740
H           -4.62565549719270        2.11564385541341        1.43611066351077
H           -3.09096267377981        1.14910372223107        0.00257318352229
H           -2.63137354738055       -0.76114449398888       -0.01424606923766
H           -3.56175709096732       -2.32268433903530       -1.44388534911368
H           -5.34740598918745       -3.99664497999284       -1.43880311037636
H           -6.40750220205446       -4.09356390003334        1.10042122959941
H           -8.74685735265571       -3.35258610043661        0.96864760500415
H          -10.40022531197940       -4.67519732508367       -0.30397126276557
H           -9.68716712498575       -6.74268878015292       -1.45132100479873
H           -7.34379800566012       -7.47499673950493       -1.33975521818037
H           -3.34695055924291       -7.47080195027390       -1.22240337121942
H           -2.81181783769515       -9.86603839395523       -1.07887907500896
H           -4.24399869713141      -11.38270362440744        0.24329348782975
H           -6.21251750199003      -10.47859286888753        1.42945728483976
H           -6.74033216227573       -8.08096299845971        1.30250807331717
H           -3.10118000059061       -6.38353056288247        1.30318619799164
H           -1.31532909497536       -4.70811834400301        1.29797969443692
H            0.37710999171259       -3.77065019202578       -0.07040543333995
H            2.12130319829213       -2.02550297990704       -0.03630547996181
H            5.62640156539087       -0.30810873389564       -0.02857692546505
H            8.47892313305640        2.84023756431233       -1.32495435734891
H           10.82706634920549        2.15329189537032       -1.31268727669437
H           11.81716019418611        2.43062174734615        1.26022144577877
H           13.59246733951291        4.13066834494761        1.21564821890985
