  130
       -199.08865419
 C         14.8208174482        3.1126046371       -0.0907773007
 C         15.0050330600        1.9076460313       -0.7492160927
 C         14.0252908877        0.9349141947       -0.7173062489
 C         12.8404935671        1.1535559019       -0.0137550221
 N         11.8450790286        0.1722532343        0.0227721569
 C         12.1957330305       -1.1804911651        0.0808936268
 C         13.2995066249       -1.5936421775        0.8274793411
 C         13.6435316713       -2.9300798015        0.8790920432
 C         12.8937373392       -3.8750891011        0.1977006072
 C         11.7942025694       -3.4706349817       -0.5416241124
 C         11.4458473914       -2.1357700358       -0.6056167544
 C         10.4972070166        0.5442727998        0.0000261342
 C          9.5503891947       -0.1609185151        0.7442604773
 C          8.2235437041        0.2096299550        0.7179001444
 C          7.7923307512        1.3021694820       -0.0369265147
 C          6.3857220947        1.7051557584       -0.0487422411
 C          6.0338812848        3.0564464875       -0.0885713228
 C          4.7123026854        3.4511742060       -0.0872327615
 C          3.6792564074        2.5145783053       -0.0590433289
 N          2.3963758302        2.8497079845       -0.0606963274
 C          1.4232182140        1.9514893626       -0.0401215728
 C          0.0519486470        2.3390368563       -0.0404556492
 C         -0.2749734877        3.7066351832       -0.0598756383
 C         -1.5776545365        4.1211512673       -0.0517660536
 C         -2.6199262657        3.1791251951       -0.0138578895
 C         -4.0200665741        3.6110730571        0.0135737402
 C         -4.4559996159        4.6935565120       -0.7506538686
 C         -5.7763801969        5.0890612440       -0.7380717589
 C         -6.7075427246        4.4208249530        0.0580119915
 N         -8.0482446512        4.8162198799        0.0755527196
 C         -8.3809884081        6.1720014353       -0.0128563765
 C         -9.5093854412        6.5779088357       -0.7258014144
 C         -9.8361192266        7.9172128165       -0.8074264651
 C         -9.0441389256        8.8720084260       -0.1904646223
 C         -7.9203941575        8.4746345535        0.5155279220
 C         -7.5894312965        7.1371214694        0.6100405535
 C         -9.0566576481        3.8527274213        0.1863855154
 C         -8.9272281669        2.6174033676       -0.4489349844
 C         -9.9206811372        1.6656636265       -0.3285871552
 C        -11.0593431956        1.9294026549        0.4151834130
 C        -11.1956980106        3.1566553087        1.0433441218
 C        -10.2039289852        4.1118756491        0.9364699223
 C         -6.2752931609        3.3464359271        0.8369487806
 C         -4.9571822533        2.9472014856        0.8062858395
 C         -2.3029787348        1.8322654695       -0.0009844952
 C         -0.9824195310        1.3731409183       -0.0192150225
 C         -0.6389963535       -0.0300896458       -0.0180636905
 C         -1.6001374817       -1.0459815739       -0.0266973459
 C         -1.2616769642       -2.3874568764       -0.0181590862
 C         -2.3071280812       -3.4151158815       -0.0346909015
 C         -3.4530399291       -3.2574829181       -0.8148737452
 C         -4.4401427411       -4.2186838441       -0.8344726570
 C         -4.3209643174       -5.3711528871       -0.0566309813
 N         -5.3266522005       -6.3420747730       -0.0643465424
 C         -6.6685608130       -5.9588671894       -0.1619753026
 C         -7.1226797598       -4.8017675479        0.4714635130
 C         -8.4468291877       -4.4239910619        0.3653290726
 C         -9.3403611479       -5.1930043269       -0.3622938117
 C         -8.8961406247       -6.3461253281       -0.9885645556
 C         -7.5720443543       -6.7277484637       -0.8959555830
 C         -4.9908590492       -7.6975494385        0.0236693610
 C         -3.8524085635       -8.1871900047       -0.6165181488
 C         -3.5228727194       -9.5251770359       -0.5229052738
 C         -4.3217088345      -10.3963533951        0.1996042400
 C         -5.4557693558       -9.9159504715        0.8340131325
 C         -5.7895989287       -8.5782814101        0.7532553232
 C         -3.1784670641       -5.5347346116        0.7279840610
 C         -2.1882114172       -4.5759606089        0.7294609417
 C          0.0971798231       -2.7439537931        0.0055627133
 C          1.0628729437       -1.7755504873        0.0061399623
 C          0.7235869938       -0.4116479582       -0.0086966548
 C          1.7650641956        0.5646566779       -0.0165304407
 N          3.0394709481        0.2163289510       -0.0071958659
 C          4.0294555704        1.1080774168       -0.0240248680
 C          5.3702064381        0.7489238747       -0.0135971847
 C          8.7465390846        2.0026143683       -0.7775789647
 C         10.0727066913        1.6300500030       -0.7672985689
 C         12.6620068508        2.3672624103        0.6508966143
 C         13.6449286758        3.3363111777        0.6065555737
 H         15.5881217490        3.8711338568       -0.1209174620
 H         15.9172597428        1.7256347136       -1.2985436047
 H         14.1674358788        0.0007202019       -1.2407533062
 H         13.8788540671       -0.8600224442        1.3687858731
 H         14.4988013399       -3.2367048463        1.4629613736
 H         13.1645042744       -4.9189268327        0.2425005685
 H         11.2072279416       -4.1996626852       -1.0804800098
 H         10.5946191365       -1.8215084361       -1.1912964760
 H          9.8677346508       -0.9962401394        1.3515311988
 H          7.5112219752       -0.3348400781        1.3195934667
 H          6.8082314146        3.8086088210       -0.0895983762
 H          4.4460246719        4.4967949526       -0.1040616648
 H          0.5375022378        4.4172697555       -0.0758202924
 H         -1.8119524639        5.1753026237       -0.0468855044
 H         -3.7555217461        5.2101627844       -1.3900880486
 H         -6.1005865258        5.9155715366       -1.3535869945
 H        -10.1216793160        5.8357032013       -1.2168972287
 H        -10.7110358278        8.2182576210       -1.3646758468
 H         -9.3010922228        9.9180785097       -0.2596872381
 H         -7.3003425865        9.2118509566        1.0040961498
 H         -6.7189234156        6.8288217848        1.1702946068
 H         -8.0455007059        2.4136899592       -1.0386472807
 H         -9.8084619017        0.7136985392       -0.8265760685
 H        -11.8349993371        1.1840744131        0.5044815218
 H        -12.0779076072        3.3693206815        1.6290771125
 H        -10.3072239492        5.0639376204        1.4362423480
 H         -6.9827755231        2.8332137822        1.4719095188
 H         -4.6385727902        2.1273456439        1.4331708743
 H         -3.1153371583        1.1229758589        0.0029994789
 H         -2.6478841745       -0.7906758127       -0.0202804183
 H         -3.5551368333       -2.3832198352       -1.4409727551
 H         -5.3112950767       -4.0884968093       -1.4599628111
 H         -6.4305818915       -4.2064518515        1.0488357787
 H         -8.7849652231       -3.5263770451        0.8620972160
 H        -10.3752283462       -4.8962853516       -0.4404481855
 H         -9.5845041793       -6.9495177945       -1.5619229232
 H         -7.2264124386       -7.6212643686       -1.3949519670
 H         -3.2340859749       -7.5122197397       -1.1900478403
 H         -2.6402783268       -9.8917960691       -1.0261457515
 H         -4.0626625190      -11.4419352536        0.2680086059
 H         -6.0812290566      -10.5864421248        1.4049293706
 H         -6.6679990560       -8.2036309555        1.2582994626
 H         -3.0792368843       -6.4176004970        1.3426075181
 H         -1.3217518326       -4.7118615777        1.3597363687
 H          0.3749795360       -3.7874504758       -0.0037894618
 H          2.1114378114       -2.0322453571        0.0119495403
 H          5.6073945267       -0.3036590440       -0.0077276190
 H          8.4375719219        2.8321442907       -1.3960964347
 H         10.7933615382        2.1735457702       -1.3610456826
 H         11.7510510803        2.5397884492        1.2047656029
 H         13.4944210615        4.2701902521        1.1278702554
