  130
       -199.13867418
 C         14.8654667612        3.0244625229       -0.0241617019
 C         15.0233551124        1.8484305021       -0.7389345419
 C         14.0341563581        0.8844712441       -0.7285495520
 C         12.8679997492        1.0828984798        0.0099431765
 N         11.8639607229        0.1071669848        0.0281650921
 C         12.2105775659       -1.2493532363        0.0346200823
 C         13.3187999107       -1.6916477504        0.7564327114
 C         13.6626209084       -3.0294155430        0.7527814074
 C         12.9071544466       -3.9466317535        0.0408161698
 C         11.8026228336       -3.5130300075       -0.6739037833
 C         11.4555306015       -2.1761649297       -0.6836213746
 C         10.5208029781        0.4870482075        0.0285683845
 C          9.5723591932       -0.2466032099        0.7435581756
 C          8.2466429910        0.1288307965        0.7358116293
 C          7.8195917759        1.2534784817        0.0294405438
 C          6.4079315648        1.6510632912        0.0282839815
 C          6.0636320969        3.0259370896        0.0673621223
 C          4.7644813582        3.4367103042        0.0662905880
 C          3.7220233103        2.4857632527        0.0232286891
 N          2.4448459493        2.8877687265        0.0196437766
 C          1.5044900587        1.9609836164       -0.0140952512
 C          0.1187666267        2.3684790398       -0.0126843318
 C         -0.2036502105        3.7292991993        0.0002558275
 C         -1.5115536501        4.1469390912        0.0107219737
 C         -2.5457577028        3.2050962792        0.0202708211
 C         -3.9533206920        3.6184183875        0.0483491758
 C         -4.4114954584        4.6806637560       -0.7289446162
 C         -5.7435066720        5.0371291579       -0.7318554208
 C         -6.6621302296        4.3512912104        0.0643918905
 N         -8.0151889941        4.6957047378        0.0579650160
 C         -8.4043038146        6.0324351751       -0.0863839843
 C         -9.5394319717        6.3603917964       -0.8274165660
 C         -9.9244047885        7.6797820874       -0.9635276730
 C         -9.1840943086        8.6914973430       -0.3741606580
 C         -8.0538314883        8.3713678296        0.3599620048
 C         -7.6656088129        7.0542749277        0.5095163103
 C         -8.9886467604        3.6984470833        0.1982128961
 C         -8.8159113710        2.4512682698       -0.4020535120
 C         -9.7734582969        1.4673557103       -0.2517688712
 C        -10.9199510067        1.7110192828        0.4866757019
 C        -11.1004072918        2.9505575287        1.0781316045
 C        -10.1438327153        3.9377156717        0.9418082020
 C         -6.2028050739        3.3051885560        0.8662919803
 C         -4.8742378234        2.9415743345        0.8475121307
 C         -2.2262265191        1.8558783819        0.0006613679
 C         -0.9066369600        1.4026916578       -0.0210797236
 C         -0.5698817299       -0.0142411264       -0.0565535305
 C         -1.5452805165       -1.0120892870       -0.0767427198
 C         -1.2253616330       -2.3610348801       -0.1132580827
 C         -2.2960240168       -3.3640317924       -0.1263679993
 C         -3.4584882522       -3.1562432005       -0.8687866938
 C         -4.4822192843       -4.0782166708       -0.8616472432
 C         -4.3833912024       -5.2396161995       -0.0942119903
 N         -5.4349471780       -6.1587835647       -0.0605770716
 C         -6.7584508846       -5.7039173675       -0.0847491644
 C         -7.1147677594       -4.5297245948        0.5788701013
 C         -8.4199949108       -4.0793495292        0.5459721317
 C         -9.3918607400       -4.7930183250       -0.1360413277
 C         -9.0450628325       -5.9632993585       -0.7910702046
 C         -7.7402931391       -6.4163649842       -0.7729265154
 C         -5.1647787359       -7.5305901695        0.0030195762
 C         -4.0837714554       -8.0699315556       -0.6939767965
 C         -3.8178955047       -9.4235859248       -0.6265694653
 C         -4.6252016313      -10.2610759710        0.1255804547
 C         -5.7024077235       -9.7309536308        0.8167203342
 C         -5.9714828984       -8.3772930086        0.7628283533
 C         -3.2178008685       -5.4593992993        0.6410568694
 C         -2.1916076180       -4.5390385013        0.6166971981
 C          0.1224289146       -2.7364255735       -0.1273771000
 C          1.1031487652       -1.7757791077       -0.1084990015
 C          0.7800396291       -0.4157372301       -0.0719764517
 C          1.8357681287        0.5707292327       -0.0451592749
 N          3.0913791081        0.1646774613       -0.0454210538
 C          4.0546938324        1.0986442816       -0.0111149239
 C          5.4068290702        0.7089577526       -0.0084646572
 C          8.7729986093        1.9859869242       -0.6777557326
 C         10.0984153979        1.6088513476       -0.6864282370
 C         12.7161387953        2.2664626432        0.7318782864
 C         13.7074606346        3.2278987618        0.7082897090
 H         15.6393447420        3.7767915598       -0.0376094366
 H         15.9206166451        1.6832688496       -1.3170654081
 H         14.1554684667       -0.0274957247       -1.2946372522
 H         13.9041318328       -0.9796556195        1.3198060626
 H         14.5224734554       -3.3589895778        1.3173312766
 H         13.1773996659       -4.9916546090        0.0427261396
 H         11.2107847109       -4.2200179447       -1.2364030146
 H         10.6001855534       -1.8391428023       -1.2506636628
 H          9.8878283047       -1.1096919933        1.3113749847
 H          7.5320578555       -0.4390461471        1.3127970358
 H          6.8579130948        3.7560970481        0.1220307076
 H          4.4989707854        4.4821771132        0.1024880558
 H          0.6099399676        4.4377292616        0.0050752560
 H         -1.7477895953        5.2004528774        0.0357729985
 H         -3.7198527493        5.2091282165       -1.3685548455
 H         -6.0860217005        5.8450958093       -1.3616664870
 H        -10.1128541678        5.5738919539       -1.2960000017
 H        -10.8046669080        7.9200023704       -1.5415874947
 H         -9.4860115991        9.7217726342       -0.4859695523
 H         -7.4736620507        9.1531273020        0.8279015076
 H         -6.7901440105        6.8066463087        1.0918768199
 H         -7.9279423028        2.2624114478       -0.9874831427
 H         -9.6266397369        0.5060682684       -0.7222688519
 H        -11.6675972049        0.9407566538        0.6000804034
 H        -11.9891604700        3.1481761626        1.6592433089
 H        -10.2820974992        4.8997458765        1.4132473020
 H         -6.8984791576        2.7812932873        1.5053497139
 H         -4.5362895057        2.1390973310        1.4868764135
 H         -3.0408311651        1.1497802356       -0.0182020678
 H         -2.5894449715       -0.7460223422       -0.0419704740
 H         -3.5476858769       -2.2731203190       -1.4844502311
 H         -5.3697534546       -3.9075443569       -1.4533594950
 H         -6.3619037354       -3.9770371957        1.1216672251
 H         -8.6812795312       -3.1685952327        1.0648680472
 H        -10.4118408231       -4.4403308162       -0.1563539918
 H         -9.7950005193       -6.5244974431       -1.3289584766
 H         -7.4713161683       -7.3233956777       -1.2942155488
 H         -3.4592219840       -7.4205951866       -1.2899948077
 H         -2.9789744151       -9.8285888228       -1.1733571032
 H         -4.4165816367      -11.3190598591        0.1726467004
 H         -6.3342066961      -10.3753508291        1.4102305738
 H         -6.8060135889       -7.9649853949        1.3110127294
 H         -3.1301663740       -6.3528758408        1.2418387785
 H         -1.3090660112       -4.7146078652        1.2140061400
 H          0.3859846071       -3.7826609482       -0.1739647472
 H          2.1482459643       -2.0428245280       -0.1240591529
 H          5.6275576123       -0.3462426170       -0.0582369439
 H          8.4660475466        2.8429660820       -1.2590468418
 H         10.8193255022        2.1776246868       -1.2553824257
 H         11.8187035168        2.4224926956        1.3125615529
 H         13.5783605971        4.1389292911        1.2739951617
