130
 energy: -199.138974661803 gnorm: 0.000060580676 xtb: 6.7.1 (edcfbbe)
C           14.85709080659912        3.01963453360097       -0.12979930792205
C           15.00948566625265        1.82678345484405       -0.81746402045751
C           14.01868478387945        0.86513910008216       -0.77946150574961
C           12.85649941699357        1.08298833641585       -0.04008790943922
N           11.85177305787529        0.10882546162296        0.00629154202559
C           12.19845392394980       -1.24720183019359        0.04794893189042
C           13.30892804958297       -1.67027494117936        0.77778835944977
C           13.65135356515988       -3.00802816135405        0.81046940431618
C           12.89241664973159       -3.94400734862966        0.12714329696145
C           11.78612010217168       -3.52932280945259       -0.59611492325940
C           11.44043923847783       -2.19283462775509       -0.64211997425527
C           10.50878798069041        0.48883286175173        0.00886227729187
C            9.56560686438211       -0.23042403609047        0.74517078427068
C            8.23994479906175        0.14498139866723        0.73989152079713
C            7.80779128154479        1.25618492443571        0.01565238326508
C            6.39606131619511        1.65358491345571        0.01956715509619
C            6.05112343659081        3.02857892138994        0.04353278335292
C            4.75158630198708        3.43819128260792        0.05062500093563
C            3.70958511628478        2.48596917587998        0.02935278972540
N            2.43204020514366        2.88676584043310        0.03399429901855
C            1.49235852954112        1.95880088214471        0.01453458558632
C            0.10623175392259        2.36459236096899        0.02128086295499
C           -0.21665330117828        3.72516515632779        0.03984046634729
C           -1.52453306004948        4.14218015123402        0.04965584551777
C           -2.55926630168205        3.20044089213110        0.04850828422463
C           -3.96560871838223        3.61808337736756        0.06667329981941
C           -4.40632092964469        4.70070897160534       -0.69297559787669
C           -5.73465838496553        5.06973351099531       -0.70263455088858
C           -6.66862062989269        4.37433103564187        0.06688515920105
N           -8.01740543883885        4.73572674979151        0.05509188452499
C           -8.38448741404401        6.08253969248764       -0.04990958709932
C           -9.50128974901980        6.45434248811468       -0.79790426080136
C           -9.86304912323784        7.78386626030257       -0.89398610095348
C           -9.11748102389274        8.76229162216812       -0.25693823525014
C           -8.00505695188683        8.39857180750999        0.48413450742336
C           -7.64005783531838        7.07095526665466        0.59343306796826
C           -9.00582341981827        3.74830658813585        0.14759942319593
C           -8.83703875445620        2.51622732034815       -0.48417827855193
C           -9.81089161301524        1.54209801665894       -0.38229379822227
C          -10.96961488518463        1.78065664022609        0.33843586523195
C          -11.14573272180945        3.00522082902771        0.96163397472140
C          -10.17323269592457        3.98222094570916        0.87382969228356
C           -6.22853277377871        3.30452107037385        0.84788155806786
C           -4.90252041275450        2.93073672633172        0.83801525435936
C           -2.23894895624960        1.85125956347813        0.02611838275556
C           -0.91894162469041        1.39848419232401        0.00989102387244
C           -0.58096630765530       -0.01844235257772       -0.02151442346988
C           -1.55491828478825       -1.01790946201908       -0.04199560686213
C           -1.23244855481828       -2.36648642789993       -0.06905722591929
C           -2.29926012866333       -3.37357305145464       -0.08627222857282
C           -3.45177708073584       -3.17916933213477       -0.84734052157915
C           -4.46736868375577       -4.11023842357259       -0.85214102829508
C           -4.37114752400146       -5.26699859579847       -0.07716322400343
N           -5.41208485662189       -6.19796426623012       -0.05981791464577
C           -6.74063621569764       -5.76163967528972       -0.12757455464720
C           -7.13431317537537       -4.58895118687595        0.51705339994125
C           -8.44469441636515       -4.15891111112686        0.44170294893240
C           -9.38439334119305       -4.89147999396359       -0.26488181987624
C           -9.00029436812122       -6.06020486602925       -0.90167793710959
C           -7.69005754543069       -6.49320729267922       -0.84068894221018
C           -5.12955952626923       -7.56611295500876        0.02905976464690
C           -4.02659944118860       -8.10457341923576       -0.63325033232629
C           -3.75042930677102       -9.45470933116317       -0.54071733551910
C           -4.56895828961126      -10.28959449965913        0.20219876283800
C           -5.66810691435669       -9.76041810905464        0.85859982536672
C           -5.94773359838391       -8.41012618674958        0.77953218617580
C           -3.21727188630573       -5.47055036255104        0.68112429020900
C           -2.19827420841513       -4.54210440721458        0.66733778377964
C            0.11585050853469       -2.74016855179629       -0.07278104921101
C            1.09503583874989       -1.77808205178916       -0.05603272399026
C            0.76958486874765       -0.41841240423180       -0.03000138162150
C            1.82463092506853        0.56886400913986       -0.01021656098196
N            3.08054902828436        0.16376691141037       -0.01350999298984
C            4.04317125509943        1.09878870068417        0.00659729619451
C            5.39558690398098        0.71030232388032        0.00330651272451
C            8.75577833051831        1.97468759127232       -0.71273571902770
C           10.08093611140920        1.59650389408049       -0.72481630715570
C           12.71017974103215        2.28349010244505        0.65452669977493
C           13.70303778239511        3.24232206315409        0.60338738112398
H           15.63219056975304        3.77004034126673       -0.16467038754834
H           15.90380282337930        1.64631973786696       -1.39565859506045
H           14.13575622641079       -0.06037551835772       -1.32410334213188
H           13.89690887094394       -0.94352674591118        1.31913669178792
H           14.51281576067187       -3.32262472574323        1.38108334019409
H           13.16141658956780       -4.98890716864885        0.15774877976708
H           11.19178442960489       -4.25112064356271       -1.13689830128555
H           10.58376334873632       -1.87067526469006       -1.21585367605190
H            9.88502906065982       -1.08216004009488        1.32770655077354
H            7.52951536232107       -0.41154570444626        1.33284177819157
H            6.84541458276169        3.75988758578120        0.07990274670457
H            4.48543202155397        4.48381758376938        0.07620176369098
H            0.59665139217309        4.43385393720443        0.04965386666106
H           -1.76022226179438        5.19559648656363        0.08132551424833
H           -3.70341603835025        5.23716400835305       -1.31325252009976
H           -6.06247750121355        5.89585551347327       -1.31655940398553
H          -10.07877780949737        5.69416765007255       -1.30349398708157
H          -10.72914516175735        8.05841836366643       -1.47811544090342
H           -9.40151898705234        9.80054894729440       -0.33714861641865
H           -7.42111386018560        9.15396115435661        0.98923503375337
H           -6.77864216729420        6.78872298133076        1.18100933517712
H           -7.93962271062183        2.33136348433039       -1.05634957090929
H           -9.66707555560592        0.59270102972264       -0.87721096711433
H          -11.73011519291108        1.01828127833966        0.41333545366191
H          -12.04408624149666        3.19891645434044        1.52919797746444
H          -10.30861534243559        4.93223529553450        1.36982285475078
H           -6.93696524189238        2.77132710915797        1.46491786199097
H           -4.57991195278346        2.11140650246800        1.46378605456085
H           -3.05255238562530        1.14423196293740        0.00004830996952
H           -2.59984812495110       -0.75361611938396       -0.01529364123768
H           -3.53840497103272       -2.29992824315073       -1.46893862776385
H           -5.34579499695954       -3.95074990208474       -1.46031163715953
H           -6.40656016002803       -4.02169244035842        1.07874296634731
H           -8.73558221593996       -3.24930052537144        0.94665369336026
H          -10.40853733227240       -4.55465093785623       -0.31832831740470
H           -9.72493589323519       -6.63586819260732       -1.45863128552257
H           -7.39144633986108       -7.39931800642606       -1.34728644587478
H           -3.39317153219111       -7.45746366662796       -1.22228485356733
H           -2.89427405154291       -9.85920770346106       -1.06043631569460
H           -4.35204014317204      -11.34485332721820        0.26898089914568
H           -6.30908546311837      -10.40274121153194        1.44449657622745
H           -6.79987751827293       -7.99839061628068        1.30038097729881
H           -3.13231125001988       -6.35878505228105        1.28996087909050
H           -1.32407904806309       -4.70663518460285        1.27992815831392
H            0.38090324770308       -3.78637265272111       -0.11075337293006
H            2.14059752415227       -2.04354686754201       -0.06550216501516
H            5.61721797843623       -0.34518677419947       -0.03527523134663
H            8.44449096826078        2.82078472068741       -1.30756619012550
H           10.79737053730166        2.15352251069167       -1.31076573014662
H           11.81596060074144        2.45480164495853        1.23587506057793
H           13.57808625437754        4.16685442199814        1.14778565721975
