  101
       -154.24339287
 C          5.6476379039       -4.0174708980       -0.0487048098
 C          5.2219485361       -2.5402706713        0.0147827082
 C          6.4595475468       -1.6263412338        0.0756908413
 C          4.4451796428       -2.1975940311       -1.2365477725
 C          5.0347980982       -2.3581460516       -2.4816534183
 C          4.3720692572       -2.0367925106       -3.6525280577
 C          3.0815032407       -1.5349182544       -3.5909572439
 C          2.4721712783       -1.3654051681       -2.3688211431
 C          3.1394329018       -1.6930027909       -1.1813830083
 N          2.4969294150       -1.5195082807        0.0229465754
 C          1.2379658989       -0.8782978015        0.0313821259
 C          0.0375768552       -1.5651550197        0.0006814834
 F          0.0649031105       -2.9255493181       -0.0245539379
 C         -1.1893501869       -0.9263343635       -0.0056999902
 N         -2.4211412304       -1.6175367109       -0.0378792690
 C         -3.0200330250       -1.8429327839       -1.2558588148
 C         -2.3355239865       -1.5042508430       -2.4302596797
 C         -2.8998704791       -1.7268409442       -3.6654098098
 C         -4.1616900572       -2.2937596159       -3.7531678540
 C         -4.8424430074       -2.6241291680       -2.5951871286
 C         -4.2985372376       -2.4099203272       -1.3374155270
 C         -5.0947355823       -2.7650108275       -0.1018147784
 C         -5.4303861968       -4.2663291122       -0.1380222337
 C         -6.3850215553       -1.9251021714       -0.1038784821
 C         -4.3361877704       -2.4618682301        1.1707646301
 C         -4.9174732016       -2.7273932793        2.4017429088
 C         -4.2705245072       -2.4485057685        3.5922098173
 C         -3.0058850143       -1.8816261077        3.5658501168
 C         -2.4056057393       -1.6071594301        2.3583841629
 C         -3.0555262903       -1.8942479984        1.1510927465
 C         -1.2186047718        0.5213299771        0.0103109299
 C         -2.4349092355        1.1931306530       -0.0056774054
 N         -3.4497371721        1.7488588459       -0.0173186281
 C         -0.0179625020        1.2221765613        0.0380191709
 N         -0.0487859315        2.6386457378        0.0408665817
 C          0.0007075797        3.2994681504       -1.1627712710
 C          0.0940672365        2.5633295080       -2.3503065730
 C          0.1471425021        3.1995708450       -3.5697195163
 C          0.1050266869        4.5837707222       -3.6273549174
 C          0.0091360904        5.3120055469       -2.4552431695
 C         -0.0443728261        4.6980920418       -1.2128755524
 C         -0.1522995974        5.5387802516        0.0392846491
 C         -1.4475579772        6.3659641861       -0.0376410172
 C          1.0738987474        6.4653558111        0.1151325119
 C         -0.1948245730        4.6940446288        1.2926147534
 C         -0.2897995219        5.3034698761        2.5346412353
 C         -0.3290285642        4.5709199602        3.7073801635
 C         -0.2701683838        3.1872212616        3.6509292571
 C         -0.1761200966        2.5553920753        2.4316492895
 C         -0.1403695200        3.2957011582        1.2436589103
 C          1.2096876428        0.5693937050        0.0540709275
 C          2.3990273369        1.2872850895        0.0835640819
 N          3.3916017881        1.8810755626        0.1130235502
 C          3.1059500401       -1.8011066286        1.2237430685
 C          2.4073600982       -1.5747808801        2.4166717430
 C          2.9802631387       -1.8592757960        3.6350537045
 C          4.2659228705       -2.3747613472        3.6869358809
 C          4.9617141808       -2.5909093368        2.5110540396
 C          4.4088270071       -2.3141900325        1.2695397078
 H          4.7666644791       -4.6549496597       -0.0923320317
 H          6.2268611661       -4.2903179677        0.8280142259
 H          6.2538237503       -4.2072225274       -0.9291580541
 H          6.1422800378       -0.5865701273        0.1178363849
 H          7.0822131694       -1.7623807996       -0.8032874299
 H          7.0546812212       -1.8424091485        0.9577160464
 H          6.0421567612       -2.7375396272       -2.5469819794
 H          4.8600924642       -2.1727535090       -4.6048845382
 H          2.5519810873       -1.2773225726       -4.4958411184
 H          1.4694689747       -0.9769778561       -2.3191417474
 H         -1.3561248741       -1.0631261658       -2.3596985291
 H         -2.3577055416       -1.4596794414       -4.5599479614
 H         -4.6133968343       -2.4739673174       -4.7160287680
 H         -5.8265392420       -3.0567871559       -2.6812687235
 H         -4.5125302272       -4.8511184173       -0.1334953173
 H         -5.9924037777       -4.5147908881       -1.0331141348
 H         -6.0232079943       -4.5495754410        0.7262944133
 H         -6.1313960143       -0.8674319917       -0.0780570668
 H         -6.9690297255       -2.1188266927       -0.9983411644
 H         -6.9962580464       -2.1555372849        0.7632755203
 H         -5.9025822245       -3.1644342377        2.4402879779
 H         -4.7502431351       -2.6692411117        4.5328155016
 H         -2.4902472936       -1.6537066108        4.4865403981
 H         -1.4244388936       -1.1646409105        2.3347289429
 H          0.1252051510        1.4887269260       -2.3079627914
 H          0.2195391727        2.6179909689       -4.4763397259
 H          0.1456490765        5.0920621819       -4.5778912827
 H         -0.0235467121        6.3879439880       -2.5172518858
 H         -2.3052235909        5.6986426720       -0.0903495206
 H         -1.5543771121        6.9968078915        0.8393210753
 H         -1.4481457257        6.9997629851       -0.9189699016
 H          1.1335235411        7.0985055652       -0.7646156744
 H          1.0225439435        7.1016924377        0.9931509210
 H          1.9811904395        5.8676888970        0.1732324746
 H         -0.3353603728        6.3789885118        2.5958935405
 H         -0.4043085234        5.0756834815        4.6576882255
 H         -0.2979342591        2.6028234517        4.5581550017
 H         -0.1290422571        1.4812288323        2.3884986154
 H          1.4101468300       -1.1712875580        2.3729180849
 H          2.4272256859       -1.6783620077        4.5443681659
 H          4.7248751722       -2.6022763968        4.6362494338
 H          5.9643254673       -2.9837368414        2.5700057403
