46
 energy: -75.436429031652 gnorm: 0.000043776623 xtb: 6.7.1 (edcfbbe)
N           -8.15092503784525       -0.00481979154308       -0.00385461491203
C           -6.99387942750385       -0.00424889258369       -0.00360729035848
C           -5.59901908447456       -0.00334141605608       -0.00354907667728
C           -4.88357611965891       -0.32121281105823       -1.17967285023799
C           -3.51230274364681       -0.32165290339461       -1.17537837164687
C           -2.81439395218186       -0.00163302501703       -0.00339641874260
N           -1.38970976467248       -0.00078998158489       -0.00332024027259
C           -0.71307981706981        1.19401089337610       -0.01642042871411
C           -1.39235491986346        2.41663965547346       -0.06010290849634
C           -0.70014784171693        3.60576134223831       -0.03951704472325
C            0.69601164417771        3.60656196448404        0.03286199282272
C            1.38957545123204        2.41823494651954        0.05346002420243
C            0.71169940039217        1.19482706540156        0.00977745737520
N            1.38971087770922        0.00080949320532       -0.00335422789770
C            2.81439362497630        0.00169781634785       -0.00342948049055
C            3.51284076045447       -0.31740636549264        1.16847839169696
C            4.88411073035791       -0.31513014068046        1.17262529318739
C            5.59901935716557        0.00365529116050       -0.00356805310766
C            6.99387795378900        0.00450590313718       -0.00365181056773
N            8.15092547264310        0.00514934680293       -0.00381529998533
C            4.88355637022933        0.32155655251472       -1.17966935890515
C            3.51228419217243        0.32186670798254       -1.17538372626333
C            0.71308149448440       -1.19399144530140       -0.01643911285756
C            1.39235307451099       -2.41662126632292       -0.06015418789931
C            0.70014339686484       -3.60574162836479       -0.03954106813913
C           -0.69601471626789       -3.60654089719467        0.03289775781996
C           -1.38957734386146       -2.41821278384182        0.05351677365880
C           -0.71170005253704       -1.19480692131654        0.00980528796614
C           -3.51282086150548        0.31749482419787        1.16851789517523
C           -4.88409115859915        0.31534566518487        1.17265662804780
H           -5.43147039748886       -0.56219240507797       -2.07851083478761
H           -2.96084740414500       -0.56225683650132       -2.07221803054836
H           -2.46925250166544        2.41599638577619       -0.10942170666737
H           -1.23932221073637        4.53885308487221       -0.07342475832346
H            1.23412756914949        4.54026636164003        0.06676513230926
H            2.46647218688219        2.41883132056067        0.10278942686005
H            2.96179824203090       -0.55870083689528        2.06538454363759
H            5.43241747998879       -0.55535829549246        2.07141278872396
H            5.43143450516609        0.56264893054765       -2.07848720628045
H            2.96081152252148        0.56248740236309       -2.07220786123634
H            2.46924935286648       -2.41597636080572       -0.10952030205143
H            1.23931183211459       -4.53883633211570       -0.07347616669955
H           -1.23412731715956       -4.54024682284135        0.06682476371214
H           -2.46647351356869       -2.41880145531949        0.10288155338151
H           -2.96176136023318        0.55870714762885        2.06543558344264
H           -5.43238073488562        0.55559116785602        2.07145023681647
