  46
        -75.39788728
 N         -8.1439848415        0.0005373174       -0.0984139215
 C         -6.9909724457       -0.0014064003       -0.0729763361
 C         -5.5923843006        0.0031039828       -0.0458734351
 C         -4.8582728686       -0.3534859548       -1.1952855079
 C         -3.4868926978       -0.3545320542       -1.1649102831
 C         -2.8127867804        0.0034161996        0.0081823035
 N         -1.3892257708        0.0023488012        0.0343466124
 C         -0.7121962251        1.1960251779        0.0241593724
 C         -1.3852304780        2.4212375277       -0.0288615626
 C         -0.6903644229        3.6074927016       -0.0018239216
 C          0.7084445250        3.6035407689        0.0858000450
 C          1.3968063522        2.4140195866        0.1092148332
 C          0.7165370234        1.1919777854        0.0567459628
 N          1.3890208780       -0.0035342241        0.0348586693
 C          2.8127098137       -0.0045148856        0.0078906056
 C          3.5328423523       -0.3517530703        1.1566224753
 C          4.9046200642       -0.3487520662        1.1328330691
 C          5.5922000731       -0.0004982297       -0.0470896532
 C          6.9905570798        0.0056530121       -0.0740529587
 N          8.1436126684        0.0025164150       -0.0962952336
 C          4.8572087866        0.3442383743       -1.1995023040
 C          3.4857354626        0.3436439619       -1.1686300412
 C          0.7120838447       -1.1971924178        0.0255753359
 C          1.3856510419       -2.4221825068       -0.0244053826
 C          0.6911291192       -3.6086277382        0.0034019171
 C         -0.7077990760       -3.6047554807        0.0892879058
 C         -1.3965485706       -2.4154119605        0.1107933806
 C         -0.7166690658       -1.1931850907        0.0571852549
 C         -3.5320661852        0.3609225685        1.1543665969
 C         -4.9037974342        0.3593713155        1.1311294326
 H         -5.3875743566       -0.6253756078       -2.0957110755
 H         -2.9163763247       -0.6252964732       -2.0411080683
 H         -2.4620866585        2.4245601946       -0.0905068351
 H         -1.2250669884        4.5426487034       -0.0409981370
 H          1.2478065073        4.5357916915        0.1295108772
 H          2.4738338101        2.4103191444        0.1691261631
 H          2.9977135123       -0.6148986760        2.0571830609
 H          5.4694244328       -0.6089984602        2.0149372082
 H          5.3857781918        0.6070335108       -2.1029082067
 H          2.9143252265        0.6055869471       -2.0470019247
 H          2.4626100812       -2.4249495480       -0.0847315316
 H          1.2260499298       -4.5437777336       -0.0351738846
 H         -1.2471064099       -4.5371306905        0.1320136337
 H         -2.4736188603       -2.4121703363        0.1697115323
 H         -2.9963297467        0.6318357062        2.0522741009
 H         -5.4678573700        0.6285788261        2.0109909101
