46
 energy: -75.436430944783 gnorm: 0.000045581367 xtb: 6.7.1 (edcfbbe)
N           -8.15069327645823        0.00311159803313       -0.02388487922991
C           -6.99367773140543        0.00359032925455       -0.01691694214231
C           -5.59877087969915        0.00397293717221       -0.00904865328506
C           -4.87731172422362       -0.29398123634378       -1.18666785726523
C           -3.50605098677988       -0.29559947047866       -1.17506114123833
C           -2.81438202619612        0.00350558319881        0.00592966939196
N           -1.38935207340271        0.00231361125787        0.01299598455064
C           -0.71080343617303        1.19586443532985       -0.00036832147703
C           -1.38809357488536        2.41952550362702       -0.04166831792341
C           -0.69359875150886        3.60742507702774       -0.02526062195434
C            0.70299246680342        3.60565863219734        0.03983401063586
C            1.39447892925783        2.41618833527662        0.05978092472617
C            0.71410006112127        1.19389802559788        0.02224142928019
N            1.38975886187714       -0.00135533562543        0.01114733194860
C            2.81459369317687       -0.00290868467884        0.00460466056257
C            3.51810404625031       -0.30938345415070        1.17679595057135
C            4.88941610236253       -0.30967297233486        1.17420563563271
C            5.59912835963471       -0.00605961368195       -0.00908459494817
C            6.99399698531356       -0.00798077098500       -0.01627641279439
N            8.15102330368133       -0.00970744162077       -0.02252915778027
C            4.87848764778217        0.29934433311395       -1.18532940875314
C            3.50724653868696        0.30229789930067       -1.17435208396736
C            0.71107392348256       -1.19500134752986        0.00414562002357
C            1.38781427312908       -2.41912834199077       -0.03391217760150
C            0.69298966274317       -3.60670712154275       -0.01062453009791
C           -0.70348698093242       -3.60439826160103        0.05752184410290
C           -1.39457375061379       -2.41464272576643        0.07307150159365
C           -0.71381570897027       -1.19281606594210        0.02917706025783
C           -3.51859174804418        0.30286510129138        1.17942976075573
C           -4.88995253439181        0.30186204305598        1.17618172102268
H           -5.42054396542146       -0.51903237168958       -2.09241210645805
H           -2.94992573367034       -0.52158110502533       -2.07280130254544
H           -2.46523704117722        2.42055636300891       -0.08568396707094
H           -1.23117590184332        4.54150837350588       -0.05708080267652
H            1.24296142185511        4.53845421309990        0.06913392066736
H            2.47159949698602        2.41471244405470        0.10422457615661
H            2.97104970802463       -0.53923421815435        2.07912787376495
H            5.44159272755531       -0.54039898699584        2.07311599569119
H            5.42237525564155        0.52889044406919       -2.08957550187168
H            2.95181260106322        0.53365556728171       -2.07116850341952
H            2.46480887880859       -2.42094195626434       -0.08116582191097
H            1.23025403289686       -4.54105911106815       -0.03981870488180
H           -1.24358535171189       -4.53693490836255        0.09206166428822
H           -2.47166280970452       -2.41240247642853        0.11860669781265
H           -2.97215077803951        0.52848501191949        2.08317032153646
H           -5.44272864115054        0.52721307611514        2.07606871572934
