46
 energy: -75.505744846365 gnorm: 0.000031690459 xtb: 6.7.1 (edcfbbe)
N           -8.14104161667856       -0.00013208349580        0.00011045824803
C           -6.99354277514347       -0.00007397115319       -0.00009690618631
C           -5.57987809120131       -0.00003875291340       -0.00001880796106
C           -4.88446693859807       -0.00002815089648       -1.21096615290557
C           -3.50369347840360        0.00000701389904       -1.20626705979675
C           -2.80894145557606        0.00002939075056        0.00002543741656
N           -1.38959344718998        0.00003703629794        0.00003872260666
C           -0.70321515459840        1.21402325420375        0.00001542717849
C           -1.38105733697467        2.42257793004366        0.00005114521648
C           -0.68851585183190        3.62823489676471        0.00002797769423
C            0.68852825397154        3.62823167573616       -0.00003397807628
C            1.38106589254624        2.42257176912393       -0.00006976376695
C            0.70322071248705        1.21401920228837       -0.00004542394504
N            1.38959339496692        0.00002852106100       -0.00008639733492
C            2.80894140375701        0.00000846308084       -0.00004416790800
C            3.50367497367161       -0.00004189502262        1.20625923100947
C            4.88445051563981       -0.00007491544896        1.21097795087548
C            5.57987895685330       -0.00006110774377        0.00003719439767
C            6.99354351462590       -0.00009705842221        0.00008422389901
N            8.14103770818931       -0.00016979386237        0.00010137959813
C            4.88452236361493       -0.00000714545206       -1.21094398500007
C            3.50374657476922        0.00002704726127       -1.20630647498931
C            0.70321444264116       -1.21395653368680       -0.00004304421424
C            1.38105670987700       -2.42251041022971       -0.00007437128846
C            0.68851577258807       -3.62816733702715       -0.00003898618518
C           -0.68852848925158       -3.62816409711893        0.00002872586807
C           -1.38106555965757       -2.42250423155094        0.00005473312512
C           -0.70322022193103       -1.21395249818178        0.00001770404497
C           -3.50372737705894        0.00002382973812        1.20629921882141
C           -4.88450480391301       -0.00001155964954        1.21095608105818
H           -5.43051437313631       -0.00004809395379       -2.14249125687167
H           -2.95458437125819        0.00001422132746       -2.13578863093492
H           -2.46023609909543        2.42863069500302        0.00009349599337
H           -1.23974498438760        4.55612165197751        0.00005783595284
H            1.23976057945653        4.55611619132731       -0.00005685404612
H            2.46024421377729        2.42862073832115       -0.00011810738021
H            2.95455165083951       -0.00004499797328        2.13577288297042
H            5.43048151156819       -0.00012129387619        2.14251372992714
H            5.43060656707610       -0.00000475430984       -2.14244758101231
H            2.95467651141722        0.00007639208176       -2.13585133054717
H            2.46023540135324       -2.42856376542845       -0.00012894554968
H            1.23974564554457       -4.55605346738286       -0.00006739093696
H           -1.23976159109242       -4.55604797842674        0.00005907537015
H           -2.46024386352479       -2.42855383987720        0.00009957308153
H           -2.95463941648101        0.00004400385106        2.13583401695884
H           -5.43057597427753       -0.00001919105628        2.14246839553364
