  46
        -75.47315575
 N         -8.1437837692       -0.0021106585        0.0610668433
 C         -6.9965843470       -0.0014312452        0.0478110876
 C         -5.5848405501       -0.0002747572        0.0306468908
 C         -4.8992102605       -0.5615347695       -1.0492002039
 C         -3.5207028598       -0.5596959673       -1.0627258589
 C         -2.8063437007       -0.0005060690       -0.0027403714
 N         -1.3979317889       -0.0010825146       -0.0179723333
 C         -0.7036697556        1.2119356180       -0.0421171871
 C         -1.3763793309        2.4229418435       -0.1305620629
 C         -0.6907274404        3.6281897206       -0.0993286411
 C          0.6810962380        3.6306948101        0.0316538477
 C          1.3706892737        2.4279242890        0.0723044773
 C          0.7019394552        1.2140478362       -0.0061393081
 N          1.3979514389        0.0019572746       -0.0197798500
 C          2.8063525623        0.0010361464       -0.0035714940
 C          3.4941496745       -0.5595864253        1.0731565712
 C          4.8724703083       -0.5622158812        1.0938513924
 C          5.5848246488       -0.0007371295        0.0315417820
 C          6.9965646387       -0.0012429793        0.0490897667
 N          8.1437660219       -0.0005331588        0.0613986736
 C          4.9001737542        0.5609261788       -1.0487306735
 C          3.5216684292        0.5598357306       -1.0631205484
 C          0.7036454877       -1.2110345798       -0.0430133762
 C          1.3762524367       -2.4220254061       -0.1324837186
 C          0.6906449570       -3.6272712815       -0.1003289899
 C         -0.6809940514       -3.6297817905        0.0326507921
 C         -1.3705419096       -2.4270231713        0.0742339685
 C         -0.7018971460       -1.2131483870       -0.0052503577
 C         -3.4951166058        0.5599329167        1.0734567807
 C         -4.8734642561        0.5618617143        1.0932675137
 H         -5.4546047765       -0.9868911663       -1.8718868930
 H         -2.9835407350       -0.9852995367       -1.8974465682
 H         -2.4508538948        2.4310297227       -0.2271962916
 H         -1.2406808390        4.5534988755       -0.1667828936
 H          1.2282356724        4.5581616404        0.0921130237
 H          2.4449726276        2.4408141133        0.1699176818
 H          2.9361359542       -0.9864113886        1.8934634920
 H          5.4070323342       -0.9884099982        1.9297958407
 H          5.4563184285        0.9860374648       -1.8710359219
 H          2.9852718949        0.9856812113       -1.8982112610
 H          2.4505853833       -2.4300566333       -0.2307063339
 H          1.2404717576       -4.5525766238       -0.1688291504
 H         -1.2280463952       -4.5572592607        0.0937417879
 H         -2.4446960205       -2.4398856440        0.1732954078
 H         -2.9378486329        0.9869207518        1.8941877807
 H         -5.4087750326        0.9875787688        1.9289639900
