56
 energy: -95.746221574967 gnorm: 0.000039497582 xtb: 6.7.1 (edcfbbe)
O            3.47681033590676        3.29717717621509       -0.79772932664784
S            3.19359453822396        1.91562684148091       -1.07470284619416
O            3.45565210966267        1.44191070718574       -2.41025451519231
C            4.07127362896682        0.85603251386331        0.05219945264768
C            5.39016341327102        1.15865616509056        0.33126162138071
C            6.16526804814198        0.28566858081716        1.07002556655965
C            5.60081001221146       -0.90774784538488        1.49747680208439
C            4.28071321181770       -1.20710072878548        1.23057515350539
C            3.47038988192801       -0.31385945169099        0.51411416743518
N            2.12981722699873       -0.59855159663459        0.30482911833180
C            1.65833630847995       -1.91782030324030        0.59769271676581
C            1.47415501707217       -2.80667625276246       -0.45184405430528
C            0.98851052758207       -4.07754317250892       -0.19750082193904
C            0.69108433652801       -4.46059036651548        1.09952022498843
C            0.87754202645353       -3.57236230056671        2.14627052320431
C            1.35767311330217       -2.29811208856088        1.89960454588870
C            1.17848206252629        0.31478043420203       -0.11676388752327
C           -0.18015097290441        0.02483791040739        0.05861818431479
C           -1.16442067356128        0.90862004153912       -0.35877732869142
N           -2.51667598895735        0.55039440870203       -0.20477415826501
C           -3.01914506858523       -0.60839252435418       -0.80792120674389
C           -2.24516674542929       -1.42160553544964       -1.62658754811002
C           -2.77804203151744       -2.56337621512760       -2.20531009147324
C           -4.09678141300050       -2.90651736206254       -1.98831670748299
C           -4.89370404556668       -2.08592508482303       -1.20451405976953
C           -4.36753240105916       -0.94499703931968       -0.62700914694982
O           -5.23117344022046       -0.16810153176464        0.10269118718253
C           -4.72017011311849        0.95543344571406        0.70273826768555
C           -5.59405036497958        1.70895276508305        1.46448269293741
C           -5.14547041231658        2.83796576980370        2.13325671227158
C           -3.81397443497014        3.19121385426997        2.05114120677352
C           -2.93428546758913        2.43979760317295        1.28657960037429
C           -3.37557104300477        1.32872399162124        0.57917474882424
C           -0.81679040346343        2.13555572125301       -0.92648397729740
C            0.51990484658953        2.44052199547262       -1.07771454548108
C            1.49871044673494        1.54344606843743       -0.69211312744442
H            5.78198619966051        2.08687902701714       -0.05391493444825
H            7.19446012354586        0.51726927740184        1.29243245073502
H            6.19688709662781       -1.61718602667078        2.05177255137863
H            3.87135334333120       -2.14315537493287        1.57611207722554
H            1.70996729800965       -2.49319223414165       -1.45775616895878
H            0.84228375061967       -4.76859385872745       -1.01341691335062
H            0.31168568598319       -5.45174626133239        1.29580320530289
H            0.64367312637821       -3.86964386416774        3.15738118052317
H            1.49745645139089       -1.59388161108636        2.70655406766827
H           -0.48291262292997       -0.90123534051305        0.52192243387116
H           -1.21937440516978       -1.15674905470036       -1.82687316692411
H           -2.14952902355094       -3.17679846435539       -2.83221741490784
H           -4.51529270819583       -3.79583964859955       -2.43217009295784
H           -5.93449066427835       -2.30965187569703       -1.03339662159340
H           -6.62246471829504        1.39074128631416        1.52493858663437
H           -5.83511753660786        3.42277503045634        2.72094886819306
H           -3.44370586736656        4.05376247990971        2.58327924887803
H           -1.89326780724971        2.71862011594672        1.24595130723582
H           -1.58501148326733        2.81781568604833       -1.25364727800930
H            0.84059387488999        3.37189362964432       -1.51674516729791
