56
 energy: -95.652689967539 gnorm: 0.000081611604 xtb: 6.7.1 (edcfbbe)
O            3.46471849462255        3.24325379577296       -0.96980736206560
S            3.17293092695866        1.84815161553963       -1.16132103897462
O            3.42545315287871        1.29711599001076       -2.47050431669595
C            4.06192357922569        0.85111462126112        0.01301905515835
C            5.37783539472855        1.17451282305901        0.27910580026763
C            6.15883460062334        0.33850586156740        1.05566030892016
C            5.60264531138105       -0.83998632180691        1.53147172185887
C            4.28476137970252       -1.16018190156069        1.27687337380785
C            3.46836027072285       -0.30227669957148        0.52391153658005
N            2.12997862262507       -0.60407401700060        0.32488662992421
C            1.67110877223202       -1.91875619150438        0.65236463431396
C            1.50175498754613       -2.83919202945429       -0.37206927631075
C            1.03214698744531       -4.10880848661863       -0.08399908538630
C            0.73422290194740       -4.45927562152195        1.22294203436280
C            0.90391062772399       -3.53921624759686        2.24440794122480
C            1.36874159926625       -2.26611595488741        1.96388445189028
C            1.17025024319116        0.28856185096448       -0.11983894018214
C           -0.18203187788602       -0.00312353506993        0.06653362819525
C           -1.16777481062458        0.87834329417429       -0.37009222336881
N           -2.52910916043497        0.52153692262060       -0.19624071175547
C           -3.03092122153067       -0.57408718773050       -0.85440640540253
C           -2.27662038512245       -1.36470593905896       -1.73376331029568
C           -2.82924197103424       -2.45549227623962       -2.35004301008523
C           -4.18846867962303       -2.80147210603997       -2.12840265852585
C           -4.96711326658417       -2.02407545225787       -1.30987153058729
C           -4.42736985057509       -0.90915600453900       -0.66874106536309
O           -5.23696146587444       -0.15024515538849        0.09272999323082
C           -4.73560712760553        0.92749707880638        0.72393783399215
C           -5.58721658195137        1.70177696615956        1.50917987387374
C           -5.10346525447772        2.78051783371368        2.20593402429245
C           -3.71967902750091        3.09989754660148        2.14740834130660
C           -2.86478566093514        2.36207190348326        1.37533903702667
C           -3.33303252599046        1.27700461874648        0.61670628955967
C           -0.83107677461629        2.09308905247857       -0.97561191176970
C            0.50061539209187        2.39171545150364       -1.14998350167005
C            1.48880495400885        1.50492649411227       -0.73802073046025
H            5.76386984283537        2.08776732518151       -0.14559825586482
H            7.18604509956890        0.58690203272164        1.26908071383316
H            6.20348491993703       -1.52167167366430        2.11492527902283
H            3.88213621968392       -2.08446346991349        1.66002965279212
H            1.73822044837752       -2.55091700052091       -1.38533600431013
H            0.89920715651531       -4.82484163201931       -0.88045213358261
H            0.36818069520942       -5.44992077405318        1.44576096525536
H            0.66993888074777       -3.81105604551074        3.26277535158008
H            1.49692179700944       -1.53788296049149        2.75118967766304
H           -0.48588648365033       -0.91733955100739        0.55180286287880
H           -1.24856055606219       -1.10047955657078       -1.92521888755437
H           -2.23350606339289       -3.05460413222903       -3.01920269803455
H           -4.60582085787666       -3.66468947156374       -2.61992420769833
H           -6.00962282707701       -2.24618060308544       -1.14339362785450
H           -6.62787757566229        1.42090773675271        1.55459722343812
H           -5.76329180702633        3.38010857377991        2.81069902981407
H           -3.34526683559801        3.93050904658617        2.72331334566396
H           -1.81418498804369        2.60573894356019        1.34279300246459
H           -1.60684110454743        2.76288188173229       -1.31071188677044
H            0.81924523214958        3.30806845785999       -1.61975118698121
