56
 energy: -95.652689013416 gnorm: 0.000164225712 xtb: 6.7.1 (edcfbbe)
O            3.44670768187233        3.27104719099807       -0.97372119101541
S            3.16462771116135        1.87327907766195       -1.15999072820355
O            3.42305948003736        1.31836720479762       -2.46635098013802
C            4.05777832690648        0.88661003225910        0.01987122538034
C            5.36941565880145        1.22216153346510        0.29194677081335
C            6.15436720679320        0.39338563161956        1.07227622123138
C            5.60696558802816       -0.79040229720434        1.54513472092673
C            4.29320488884275       -1.12265824142868        1.28464923662636
C            3.47232053157768       -0.27188859680983        0.52855775357898
N            2.13708112244376       -0.58445809972468        0.32458075691660
C            1.68833676290916       -1.90434031327834        0.64472859911657
C            1.52632317470785       -2.81984687919566       -0.38530698949802
C            1.06814043128220       -4.09532402972135       -0.10494618231596
C            0.77419825198420       -4.45658215947443        1.19997683031720
C            0.93600453011652       -3.54129134658016        2.22697645807107
C            1.38935543673638       -2.26237288037661        1.95416881507251
C            1.17148312162303        0.30253471456505       -0.11871390421843
C           -0.17884348894442        0.00348975640989        0.07052659319491
C           -1.16980999243046        0.88118571917391       -0.36179265811868
N           -2.52930420383243        0.52030937345273       -0.18047580391902
C           -3.03442197298858       -0.57089148879847       -0.84304953826109
C           -2.28491500988413       -1.35401537196618       -1.73300457752208
C           -2.84102410459458       -2.43969127554130       -2.35524667707742
C           -4.19894976118951       -2.78768090083133       -2.12841584650286
C           -4.97265883765700       -2.01812687926874       -1.29790600395554
C           -4.42931183021299       -0.90863517122893       -0.65036039528738
O           -5.23372182918579       -0.15750745586044        0.12425993591159
C           -4.72866428247761        0.91524793517780        0.76098387626132
C           -5.57457077718054        1.68127773227457        1.56039840048184
C           -5.08666895720213        2.75530841549220        2.26147300456184
C           -3.70431667814454        3.07876847167597        2.19229270791121
C           -2.85498545311332        2.34895617161194        1.40656414718935
C           -3.32772286378978        1.26831403904347        0.64452161642028
C           -0.84084760295681        2.09754970085046       -0.96807240793321
C            0.48887479155107        2.40267761519236       -1.14663170600879
C            1.48230488713908        1.52071504952861       -0.73708817935382
H            5.74907292832162        2.13880380576883       -0.13119081395014
H            7.17819049882241        0.65128054259450        1.29062453607744
H            6.21148287964847       -1.46672223862231        2.13102609597437
H            3.89749981871946       -2.05080187785267        1.66565394543586
H            1.75986630401920       -2.52317100730991       -1.39683299956938
H            0.94126766173003       -4.80758184385396       -0.90576776130262
H            0.41746922190614       -5.45193088523315        1.41687427388968
H            0.70499003172308       -3.82151873790764        3.24375386334539
H            1.51121428609284       -1.53796066717495        2.74600730574227
H           -0.47675206237059       -0.91277103627994        0.55562698223776
H           -1.25791085163503       -1.08787086612407       -1.92766069417068
H           -2.24919859308977       -3.03315635207855       -3.03284913899058
H           -4.61923016079396       -3.64656889509597       -2.62504043138728
H           -6.01391874971769       -2.24246617748027       -1.12655849638749
H           -6.61424378574923        1.39799737559352        1.61303403949701
H           -5.74215578304271        3.34836122309408        2.87727856251643
H           -3.32655417527791        3.90603644977360        2.77077652261422
H           -1.80536314059688        2.59559099252111        1.36555782212400
H           -1.62095670981917        2.76394910016753       -1.29983883401987
H            0.80171603957516        3.32062914250985       -1.61710671413681
