  91
       -144.92049274
 N         -9.7913740293       -6.7546723640       -0.2032017246
 C         -8.8203944107       -6.1443271075       -0.1641579269
 C         -7.6264809338       -5.3930624281       -0.1184459359
 C         -7.5455282570       -4.2565829889        0.6884965458
 C         -6.3775164702       -3.5251958917        0.7255224446
 C         -5.2680217739       -3.9075714250       -0.0300557806
 C         -4.0256371482       -3.1254465826        0.0115133618
 C         -2.7833474779       -3.7743726022        0.0642570743
 C         -1.6292020790       -3.0377516650        0.0942998721
 C         -1.6768009532       -1.6393079786        0.0635532995
 C         -2.9140783275       -0.9568516754        0.0196148017
 C         -4.0727618690       -1.7424874672       -0.0060216156
 C         -2.9466222332        0.4961331697        0.0170669497
 C         -4.1552077050        1.1991992059        0.0419966419
 C         -4.2163281081        2.5807652778        0.0852203926
 C         -5.5120531464        3.2696272822        0.1067776247
 C         -5.7128293702        4.3821271355        0.9254603617
 C         -6.9276429603        5.0332149792        0.9499194199
 C         -7.9734574063        4.5811557880        0.1430103030
 C         -9.2178414706        5.2470984963        0.1601552997
 N        -10.2289753168        5.7893619014        0.1723282371
 C         -7.7846380253        3.4706253871       -0.6817230724
 C         -6.5662971561        2.8257244471       -0.6933719484
 C         -3.0203959223        3.3079987682        0.1212812034
 C         -1.8158519781        2.6562459249        0.0826949918
 C         -1.7435771374        1.2566169884        0.0127770879
 C         -0.5216860016        0.5324256081       -0.0275624513
 C         -0.4886565952       -0.8608591651        0.0494437849
 N          0.7946823426       -1.3013951253        0.0749534466
 C          1.5467564399       -0.2309264217       -0.0006050391
 C          2.9967922974       -0.2813255224       -0.0166964680
 C          3.7831547115        0.5869657513       -0.7736913560
 C          5.1565435624        0.4797268453       -0.7626409861
 C          5.7923669664       -0.4951008050        0.0101395416
 N          7.1801439114       -0.5914213524        0.0285804525
 C          7.9737840740        0.5564373767       -0.1049954342
 C          9.1538785309        0.5122393211       -0.8460586203
 C          9.9429214144        1.6396833389       -0.9658295442
 C          9.5670028399        2.8266161582       -0.3586938819
 C          8.3934394620        2.8766292517        0.3754374340
 C          7.6018741923        1.7522439097        0.5079045587
 C          7.8037911284       -1.8396656446        0.1763037633
 C          8.9555816043       -1.9608625386        0.9520243171
 C          9.5758162319       -3.1877313606        1.0886455960
 C          9.0558417795       -4.3095830463        0.4643225339
 C          7.9099448394       -4.1942208712       -0.3054481620
 C          7.2876973067       -2.9699050732       -0.4556637521
 C          5.0030503194       -1.3770802225        0.7545291314
 C          3.6311705858       -1.2758519188        0.7310537086
 N          0.7972379422        0.9242293695       -0.0688158536
 C          1.3303181048        2.2269071576       -0.1457839679
 C          2.1066358458        2.7123453202        0.8996367111
 C          2.6627482289        3.9756817145        0.8095901820
 C          2.4463499598        4.7541689955       -0.3151732949
 C          1.6715449547        4.2688207486       -1.3565323245
 C          1.1147383316        3.0055103837       -1.2790277799
 C         -5.3596932257       -5.0484688024       -0.8288015540
 C         -6.5236600476       -5.7852818986       -0.8795899190
 H         -8.3992947893       -3.9615765861        1.2812253120
 H         -6.3122506265       -2.6571033726        1.3651150904
 H         -2.7457693399       -4.8530197161        0.1020811891
 H         -0.6588070617       -3.5072853397        0.1347579563
 H         -5.0436696684       -1.2772780059       -0.0720217980
 H         -5.0872165710        0.6575338531        0.0616220641
 H         -4.9120824695        4.7246235550        1.5640532730
 H         -7.0802571942        5.8900096159        1.5897419905
 H         -8.5954135258        3.1270981151       -1.3074568488
 H         -6.4187097794        1.9781761078       -1.3465697530
 H         -3.0473303277        4.3869356078        0.1566065100
 H         -0.9051997618        3.2326089463        0.1196995570
 H          3.3235227954        1.3309093975       -1.4063710278
 H          5.7506670423        1.1478626800       -1.3683747364
 H          9.4443753939       -0.4107125955       -1.3260993144
 H         10.8540157608        1.5921546164       -1.5435467206
 H         10.1849469344        3.7060046026       -0.4559513980
 H          8.0959556298        3.7962779314        0.8572465468
 H          6.6925479745        1.7901500434        1.0900469571
 H          9.3574445241       -1.0880550783        1.4455891172
 H         10.4668053098       -3.2687794271        1.6933718927
 H          9.5408128693       -5.2671701599        0.5762260290
 H          7.5012283094       -5.0624083348       -0.8007607206
 H          6.4006649356       -2.8795973235       -1.0654499589
 H          5.4787130808       -2.1375254165        1.3556861184
 H          3.0218369299       -1.9577160700        1.3031306808
 H          2.2698419040        2.0951792676        1.7707685796
 H          3.2646879507        4.3528893551        1.6223519337
 H          2.8818829974        5.7393910131       -0.3819782497
 H          1.5039761066        4.8727290063       -2.2355672696
 H          0.5134704174        2.6139925662       -2.0870871956
 H         -4.5137578675       -5.3444216260       -1.4317409851
 H         -6.5929835279       -6.6630820073       -1.5053589063
