98
 energy: -151.087575536703 gnorm: 0.000034044617 xtb: 6.7.1 (edcfbbe)
C          -11.55472527487276        0.33887133128546        1.92533961437490
C          -10.82361867221135        1.49069154195662        1.68493630263541
C           -9.51191447585706        1.40561199951216        1.25621346465134
C           -8.90515901422589        0.16551341364524        1.06359709870899
C           -7.50730585869853        0.07624591276481        0.61913338496322
C           -6.64221669347365       -0.87198808180944        1.16396341892931
C           -5.32447431764649       -0.94726874215880        0.76450775329310
C           -4.82984179012663       -0.07998755134751       -0.21012092087775
N           -3.49275953868649       -0.15067507364956       -0.61756183858586
C           -2.78208097188644        1.02516862640213       -0.88008278264258
C           -3.01024172991091        2.17693101427483       -0.12582359937634
C           -2.31111233682898        3.33617500339955       -0.38877236388036
C           -1.36128196997553        3.38925535689764       -1.40793813744539
C           -0.62259531570432        4.62964533057191       -1.68567409380244
C           -0.14980469594927        5.42518030362851       -0.64331515198640
C            0.53983647389688        6.59464285697485       -0.90513919143753
C            0.76703270921653        6.99253788944070       -2.21244746461058
C            0.30156772216139        6.21047004608421       -3.25684690817075
C           -0.38429246822045        5.03834018868506       -2.99671842315384
C           -1.13546464213629        2.23472230093463       -2.15632808209059
C           -1.83136985927530        1.07159370882395       -1.90063010144212
C           -2.85962423247782       -1.39526245989333       -0.71354898861278
C           -3.57331481638070       -2.50228386575901       -1.19875202790959
C           -2.98037414230236       -3.74019582351771       -1.31025473502052
C           -1.65263235423450       -3.89054269950182       -0.92852474078892
C           -0.73842110954901       -4.99722381831311       -0.93174274564168
C           -0.86184051165248       -6.33528815436769       -1.28388036706525
C            0.23412831352145       -7.16246693108146       -1.13525988668544
C            1.43556333803018       -6.67423536671445       -0.62738351159549
C            1.58185434815841       -5.34594913503022       -0.27076577282887
C            0.49320663737531       -4.50439961944300       -0.44252312451132
N            0.35819383778342       -3.15939213227990       -0.13772894448300
C            1.36092028229012       -2.32875105063867        0.36866532506223
C            1.07587953062554       -1.50035594217603        1.47970276703622
C            2.02889460682939       -0.67550163817226        2.00351852928474
C            3.32449536131889       -0.65607867737454        1.44918288973158
N            4.29112733869912        0.09744713247192        2.00523336594231
C            5.48811023096854        0.08861269474561        1.46558568575913
C            6.53625544611297        0.83148547524743        2.17734827701882
C            6.24583670436295        2.08335470628180        2.71521845947498
C            7.21828691343712        2.79342539622190        3.39422776173719
C            8.48418463409456        2.25486502548154        3.55940024594156
C            8.77114825689822        0.99786735781353        3.05121395802162
C            7.80581324771659        0.28777090516301        2.36224775575579
C            5.74206107396506       -0.64287726885879        0.25766228239895
C            7.00838248213448       -0.53478781930243       -0.47871438569080
C            7.58559183312725       -1.67952411273261       -1.02381832131451
C            8.77695849571080       -1.59628069219601       -1.72006226312634
C            9.39503156212676       -0.36865073173631       -1.89529437870678
C            8.81083180227103        0.77795488391107       -1.38084680855868
C            7.62489264171741        0.69931792734000       -0.67500521620547
N            4.82723364770711       -1.43041473744525       -0.25680392031356
C            3.61348723754399       -1.48395975350006        0.33023648296011
C            2.61542722355074       -2.31852425648418       -0.19829602303155
C           -0.93921161535661       -2.77733084048741       -0.42845421630125
C           -1.52785547869797       -1.52846247270107       -0.32870104139891
C           -5.69381827689764        0.86211990415904       -0.76944242872580
C           -7.00631520891750        0.94086576729083       -0.35362091588808
C           -9.65117256920555       -0.98623674911446        1.30849974277470
C          -10.96396398565744       -0.89936049434240        1.73363919173903
H          -12.57989637578216        0.40593803243004        2.25955115119607
H          -11.27740529878305        2.46005403669807        1.83560904047949
H           -8.94241419046732        2.30845718422810        1.08828839683360
H           -6.99926500670496       -1.53813123722627        1.93578715544364
H           -4.66404758148458       -1.67653851030554        1.21085696579055
H           -3.74062462524088        2.15501621256799        0.66994955612017
H           -2.51399109872275        4.22037780303486        0.19766743339993
H           -0.30890135113240        5.11282488525537        0.37885501278631
H            0.90395529408225        7.19813660702207       -0.08571941858233
H            1.30366156960416        7.90773529834962       -2.41639158367007
H            0.47165093755105        6.51733819761827       -4.27913566374588
H           -0.75908862924158        4.44217362364249       -3.81639583626573
H           -0.39499505132566        2.24546871427866       -2.94303475138118
H           -1.64450134260316        0.18797251649450       -2.49362750406933
H           -4.60109295056639       -2.36579556794202       -1.49996230127979
H           -3.53556344804348       -4.57861268310234       -1.70202976911152
H           -1.79858959018061       -6.71752397163578       -1.66068496678468
H            0.16008292497899       -8.20540647623191       -1.40612812481919
H            2.27131357392286       -7.34771484442633       -0.50597067436085
H            2.51295777894520       -4.98349778581479        0.13789675790449
H            0.09420736927263       -1.55108739815471        1.92562710865622
H            1.82604059955940       -0.04675666542855        2.85663295145183
H            5.25445733960310        2.49029824309907        2.58233790669205
H            6.98753101988511        3.76854441220949        3.79751422761920
H            9.24410829573610        2.80995805190102        4.08916800508987
H            9.75159340653621        0.56737596401016        3.19209622061465
H            8.02947972833439       -0.69772493181138        1.98004220544345
H            7.09208282736600       -2.62964219573252       -0.88334389165746
H            9.22307408130991       -2.49098987411056       -2.12890307328056
H           10.32636724460787       -0.30383453098317       -2.43813901675421
H            9.28055078933443        1.73903120618618       -1.52962900792665
H            7.16587578279503        1.59740142057789       -0.28784486209342
H            2.84953103583696       -2.92209880048334       -1.06119390479481
H           -0.97822541275231       -0.66965512841667        0.02438159027869
H           -5.32662630357854        1.53006907993784       -1.53519417190141
H           -7.66315290794074        1.66612031288819       -0.81134776775319
H           -9.20306638489329       -1.95585663902752        1.14523976942002
H          -11.53050305616675       -1.80185287089425        1.91472090069001
