98
 energy: -151.090688888211 gnorm: 0.000070776162 xtb: 6.7.1 (edcfbbe)
C          -10.64554593544872        3.34365735626071        1.64788372939016
C           -9.54659804734621        4.18255915214418        1.56017815864194
C           -8.30983861061072        3.67523185626918        1.20695635433827
C           -8.14854526161565        2.31693023843541        0.93864354330371
C           -6.83444016889694        1.77628390361584        0.56418502967104
C           -6.39153134693339        0.55441298078651        1.06927974140960
C           -5.15612102934574        0.04642510339464        0.72665027796511
C           -4.32536833598334        0.74025341627391       -0.15414595686797
N           -3.07533375162819        0.23256625684924       -0.51863010443803
C           -1.99266811510279        1.10920909546034       -0.68075422835944
C           -1.81071787343579        2.18288956812660        0.19034602405992
C           -0.73065000370880        3.02784142309620        0.04047397096465
C            0.19550503355764        2.83651692264813       -0.98338802947990
C            1.34322554574821        3.74372560818993       -1.13371467120140
C            2.08035852322611        4.14490679898465       -0.02132018648692
C            3.15378180306188        5.00523170608140       -0.16026689840421
C            3.50320287642739        5.48706189840309       -1.41073904923159
C            2.77637518826174        5.09597276072490       -2.52335516488505
C            1.70927818526954        4.22685792826901       -2.38823182371482
C            0.00146041309746        1.76970864697636       -1.85920948834203
C           -1.07222301981550        0.91643586544900       -1.71098874675078
C           -2.86820853801376       -1.14488936907001       -0.64059563856274
C           -3.87981178888208       -1.97081422126555       -1.15661118875466
C           -3.70747046337442       -3.33405723769781       -1.25763781768413
C           -2.49345098148572       -3.89383632915688       -0.87567332962384
C           -1.97991372296876       -5.23429295874864       -0.82971549361486
C           -2.50657316714223       -6.47138438880209       -1.17807993174355
C           -1.71598738203387       -7.59432444343244       -1.02840803864886
C           -0.41070153933131       -7.49324002112401       -0.55360914702844
C            0.13634574831247       -6.27255232898218       -0.20142044703620
C           -0.66129236719731       -5.14505813452879       -0.32439127301039
N           -0.35991759475740       -3.81804793797638       -0.07020158014702
C            0.86000272401681       -3.30887053011871        0.38385192679014
C            1.47115579425070       -3.87072642727522        1.52843671690612
C            2.64381158298690       -3.36692964224267        2.01463514579093
C            3.25713708404554       -2.26985904027861        1.37666185951936
N            4.35749304022373       -1.69950712668181        1.90106199683644
C            4.91675766155580       -0.69711853967450        1.26323035694479
C            6.01972939483141       -0.00980970555704        1.94408175413739
C            6.93763104061022       -0.74822996816610        2.68833480657496
C            7.97790434269428       -0.11407753717249        3.34115086621850
C            8.10430335980144        1.26414701096462        3.27227925229047
C            7.17869709675729        2.00732575458851        2.55681911032905
C            6.14147120958043        1.37799566102116        1.89471206174219
C            4.43205589449355       -0.29196700929134       -0.02651247395047
C            5.17893974736194        0.61493391218552       -0.90617101091285
C            6.56293106539357        0.50836525610310       -1.03450115113283
C            7.24620233794918        1.34403145655838       -1.89762044353990
C            6.56009823940053        2.29159749240830       -2.64080452559150
C            5.18283355555585        2.39121058028547       -2.52954801114165
C            4.49346764939716        1.55457094435730       -1.67253955284223
N            3.30459764476675       -0.76973980056189       -0.49657434955227
C            2.66545244139200       -1.73000893098348        0.20148482242646
C            1.45330487765936       -2.25411355120154       -0.27264473068632
C           -1.46191370564117       -3.05273162681724       -0.40240683413279
C           -1.64811180683640       -1.69066201084988       -0.25149922071817
C           -4.76507835627046        1.96170006702062       -0.66689672993136
C           -5.99446577330147        2.47085050238419       -0.30560929098658
C           -9.26107339259267        1.48239024546548        1.03306856305352
C          -10.49799722754859        1.99213056242839        1.38214924342261
H          -11.61191453285064        3.74122051497168        1.92228660933367
H           -9.65420923601326        5.23723861415092        1.77067645848151
H           -7.45388192953000        4.33292049840667        1.15681138942545
H           -7.01185841913942        0.00987110875654        1.76622003585035
H           -4.82164586315779       -0.89171774112446        1.14508103131691
H           -2.51941668469873        2.34421869685641        0.98983402731924
H           -0.60725987252038        3.85714823206331        0.72194314585785
H            1.81871144393411        3.76235402851459        0.95537597861283
H            3.72009389954446        5.30212599517128        0.71112565371421
H            4.33882957761968        6.16307651142585       -1.51743680840508
H            3.04045154796009        5.47375265990102       -3.50125988616823
H            1.13802570525389        3.93432028577709       -3.25765518549626
H            0.71018415980409        1.59672537456834       -2.65610347299817
H           -1.20730303226679        0.08979604832880       -2.39362468838368
H           -4.80923313549474       -1.51975583126111       -1.47029194449355
H           -4.50239115192041       -3.95739951938771       -1.63788825592688
H           -3.51231776728332       -6.54858141370454       -1.56300561299157
H           -2.10849515775785       -8.56556008809709       -1.29156025771422
H            0.19031212333565       -8.38622139248270       -0.46283326658654
H            1.15632533424375       -6.20390487479331        0.14556324631294
H            0.97730260082421       -4.68904198513690        2.03039237779915
H            3.10973489827432       -3.77303662901158        2.89925003040630
H            6.82555044324842       -1.82104247512781        2.73574360403236
H            8.69098675693452       -0.69596042693358        3.90650992462847
H            8.91799113197180        1.75936582273285        3.78119520914969
H            7.26426045802646        3.08311449051235        2.51395438901960
H            5.41449391996714        1.96183912361078        1.34911000774193
H            7.09936424602547       -0.24102490920005       -0.47047357209086
H            8.31826232925295        1.25267479666407       -1.99223303534603
H            7.09830828086542        2.94620049060175       -3.31023402725142
H            4.64140359175864        3.12365369405036       -3.10849248517015
H            3.42140649896203        1.62825707899854       -1.57423423192215
H            1.02181466338692       -1.83275669830388       -1.16669808067494
H           -0.87656448218931       -1.06103862735209        0.16440529641521
H           -4.13445260668543        2.50539993287257       -1.35539759436612
H           -6.32332245219331        3.40895516947610       -0.72847265578938
H           -9.15713603708502        0.43000010855390        0.81090023790105
H          -11.35219966112290        1.33284250377642        1.44511569049130
