98
 energy: -151.032739147795 gnorm: 0.000064011846 xtb: 6.7.1 (edcfbbe)
C          -10.64918022956220        3.32115033971977        1.65178712127681
C           -9.55084286624993        4.16235129501130        1.57697837415299
C           -8.31204939384892        3.66008446278379        1.22408663965318
C           -8.14844432066765        2.30382034379678        0.94526717462954
C           -6.83311199067588        1.76815425424082        0.57156679487743
C           -6.39491999606690        0.53694508324517        1.06119350400839
C           -5.16013420797412        0.03132170720593        0.71641600917372
C           -4.32200660618582        0.74047365168038       -0.14760450478891
N           -3.07360321933201        0.23567930471416       -0.51049372606833
C           -1.99191695670318        1.11002638353008       -0.67686407902263
C           -1.80715147135443        2.18447708132011        0.19434586942836
C           -0.72557860732735        3.02580417754485        0.04099896652447
C            0.19390553184295        2.83405120703125       -0.98984065102612
C            1.33930689957950        3.74194426326564       -1.14790654107673
C            2.09247905966068        4.13142798160387       -0.04211822863247
C            3.16502843026684        4.99127163587531       -0.18953824195148
C            3.49440509766742        5.48632191588965       -1.44037195175188
C            2.75027924521363        5.10756101792787       -2.54588897515317
C            1.68583621229367        4.23648565706713       -2.40355741536657
C           -0.00418184914203        1.76721513452581       -1.86573833310991
C           -1.07514636496696        0.91261526342701       -1.71066082972389
C           -2.86833621131978       -1.13954016853464       -0.64500013866693
C           -3.88106030888074       -1.95767650486173       -1.17590005432677
C           -3.70956609942571       -3.31898777530324       -1.29172496992274
C           -2.50159867906832       -3.88685685765577       -0.89862919154721
C           -1.99116655868690       -5.22501146235066       -0.85796844078152
C           -2.51480930849329       -6.46249334385064       -1.21598148325903
C           -1.72646183779022       -7.58437879651924       -1.06063396671934
C           -0.42561434761650       -7.48577738696152       -0.56649575545614
C            0.11794012772395       -6.26873443314840       -0.20286842516515
C           -0.67552330367990       -5.13792706693631       -0.33755193567996
N           -0.37741477254609       -3.81914771374798       -0.06798885254769
C            0.83772056727986       -3.31199430172998        0.42337772964143
C            1.40465591812198       -3.82668339757952        1.58088249562827
C            2.58840137810282       -3.29620979510440        2.07301132657156
C            3.22645081575943       -2.23743463790230        1.42913256471282
N            4.33064564413603       -1.66188241284458        1.90334090021659
C            4.94252528352032       -0.66750552459214        1.26061282990124
C            6.06677225277397       -0.01977408706261        1.93376669221316
C            6.94927536006857       -0.79182850008764        2.69140803777931
C            8.00382207886334       -0.19830406109344        3.35782509125039
C            8.18898832374268        1.17349434981662        3.28993241804484
C            7.30161042984035        1.95087375600379        2.56115073510873
C            6.24610075219230        1.36392925449101        1.89121852527285
C            4.45873415625418       -0.26257564715662       -0.00043377824514
C            5.18369181796538        0.65033631593557       -0.88362228598249
C            6.56978747008513        0.57243385887459       -1.02912442276788
C            7.22698420613848        1.41153460259616       -1.90739889427346
C            6.51509209249219        2.33191235087443       -2.66169731361668
C            5.13660173418663        2.39931503122505       -2.54017403240183
C            4.47324464877169        1.56503117955217       -1.66181429911749
N            3.31051232021505       -0.76440227512678       -0.45089156967072
C            2.65033966128274       -1.71963879835810        0.20793062214975
C            1.46560975418832       -2.26902887243924       -0.26295292306551
C           -1.47021583568714       -3.05230777645950       -0.40150034494519
C           -1.65069069778742       -1.68940346010503       -0.24983404613506
C           -4.75542840208534        1.97297274436894       -0.64301607636190
C           -5.98688073688850        2.47605983896270       -0.28307854365679
C           -9.26015440072541        1.46633558311088        1.02785119375146
C          -10.49922593046599        1.97198828333729        1.37475138657107
H          -11.61721056306440        3.71516819922544        1.92509815697788
H           -9.66089119869438        5.21471062715791        1.79683507149879
H           -7.45696454541413        4.31932526095780        1.18487499608376
H           -7.01920612291547       -0.01588148216209        1.74732716761199
H           -4.82695634540082       -0.91152644102800        1.12429691046055
H           -2.50962710497291        2.34301722660047        0.99941964839323
H           -0.59400397524403        3.85253453817124        0.72345915848583
H            1.84706915717578        3.73771785750602        0.93414751414247
H            3.74636350610278        5.27741670159002        0.67532789998148
H            4.32918962475931        6.16228817255465       -1.55313224184924
H            3.00002846189836        5.49484175268767       -3.52371865570979
H            1.10178105570033        3.95205931874189       -3.26709085460220
H            0.70008298376669        1.59621284838560       -2.66666553383059
H           -1.21513447647488        0.08666536647400       -2.39264233206353
H           -4.80430015189236       -1.49983405380235       -1.49706694431108
H           -4.49954252099945       -3.93622542598187       -1.69122215832526
H           -3.51678467559299       -6.53865799142317       -1.61084799807659
H           -2.11485535943433       -8.55521203215318       -1.33113446989310
H            0.17128795501242       -8.38092633096770       -0.46931014340992
H            1.13003691715381       -6.19733019863389        0.16598640357329
H            0.91141888308003       -4.62648944949999        2.11191564932151
H            3.02318664879077       -3.67500345221511        2.98499876740485
H            6.79714297260149       -1.86008354232539        2.74007363985833
H            8.68442595146385       -0.80891409903626        3.93359424682366
H            9.01512511031007        1.63620616184134        3.80926392021782
H            7.42982949548040        3.02278442824023        2.51957465613451
H            5.54890812641150        1.97657263966157        1.33838574950296
H            7.12791521909941       -0.15689297761716       -0.46013294141507
H            8.30020296428967        1.34098876187473       -2.00990925970574
H            7.03285146882003        2.98699458458279       -3.34663567517530
H            4.57308536588023        3.10736572881220       -3.12887364077065
H            3.40027596602572        1.61811449096392       -1.55784189897717
H            1.05779490541103       -1.90137724180505       -1.19112299972859
H           -0.87943089052509       -1.06868967806685        0.17945986725811
H           -4.12177389818320        2.52391872854777       -1.32235637805690
H           -6.31358743354859        3.41945537394998       -0.69459133673622
H           -9.15469691577053        0.41628434218371        0.79643220039815
H          -11.35309997519036        1.31163083766642        1.42757278755983
