98
 energy: -151.032738374083 gnorm: 0.000065132910 xtb: 6.7.1 (edcfbbe)
C          -10.65771000383413        3.36087164977848        1.61758214846620
C           -9.55889119919046        4.20128549496999        1.54103622033908
C           -8.31950363813588        3.69686914304801        1.19325046684586
C           -8.15584087362470        2.33919609364211        0.92152705923759
C           -6.83982016017710        1.80063316397311        0.55428301548334
C           -6.40377638328005        0.57235525384881        1.05311025112158
C           -5.16881381194584        0.06329301065884        0.71411928094246
C           -4.32822692922006        0.76603850763753       -0.15270779981059
N           -3.07988640380724        0.25674755011126       -0.50998208953733
C           -1.99470752701022        1.12641122031651       -0.67596177595108
C           -1.81134371711256        2.20648476660293        0.18860491321977
C           -0.72349296486277        3.04021891240641        0.03836332471901
C            0.20428901088822        2.83500862154688       -0.98243264894800
C            1.35932437642236        3.73167689428829       -1.13372356778880
C            2.10281257897844        4.12160699366801       -0.02151507390463
C            3.18554361721099        4.96979600543921       -0.16170124113441
C            3.53510192867759        5.45251883928486       -1.41187615079470
C            2.80064979783944        5.07342378732369       -2.52370868019635
C            1.72598549943730        4.21384601357986       -2.38845378844164
C            0.00618204200914        1.76427405754416       -1.85357670833668
C           -1.07143111159496        0.91757570994251       -1.70181888894089
C           -2.87868259069062       -1.11969971579361       -0.63904850277972
C           -3.89220241051368       -1.93576156880481       -1.17153887731116
C           -3.72432630248510       -3.29776809009129       -1.28449528273749
C           -2.51929541490166       -3.86841998563939       -0.88654810895621
C           -2.01268666906027       -5.20790774650160       -0.84296792430524
C           -2.53804349193244       -6.44406939920041       -1.20300685922148
C           -1.75344622655922       -7.56801728695723       -1.04369474814595
C           -0.45469074647707       -7.47276272873927       -0.54344983565633
C            0.09063395225615       -6.25701054320270       -0.17812175689287
C           -0.69898095708314       -5.12406332545652       -0.31724915676457
N           -0.39828809012786       -3.80585540392347       -0.04746096048213
C            0.81895177181488       -3.30252099057910        0.44292024187941
C            1.38272801365304       -3.81633370916429        1.60233085964976
C            2.57090738422940       -3.29282463772057        2.09124530178907
C            3.21707355469093       -2.24251905064356        1.44168359332447
N            4.32760709650297       -1.67524929224611        1.91122045744148
C            4.94764222238252       -0.68977632912713        1.26273794899640
C            6.08078974721246       -0.05109638597278        1.92968826780713
C            6.95895961302830       -0.82971093508227        2.68562350264130
C            8.02242405674829       -0.24479837860843        3.34547905449272
C            8.22076565514506        1.12491888321530        3.27283742015272
C            7.33773593276887        1.90901023901160        2.54596269109522
C            6.27348646631410        1.33064112974044        1.88237087031627
C            4.46467994240288       -0.28526252786312        0.00122175263858
C            5.19629079178757        0.61686351824450       -0.88756358652846
C            6.58130088433043        0.52541672998311       -1.03573949945381
C            7.24434458396474        1.35422460871835       -1.91936888815938
C            6.53939388358119        2.27733198037635       -2.67683058690726
C            5.16186556017936        2.35809640215270       -2.55260084675565
C            4.49273113970880        1.53447730995782       -1.66858944581097
N            3.31080440007849       -0.77823664909601       -0.44465332758351
C            2.64342468808988       -1.72488734987048        0.21928935331342
C            1.45355221110387       -2.26652908690675       -0.24775556840708
C           -1.48743987880463       -3.03627022772305       -0.38632319183081
C           -1.66439914670540       -1.67258324021641       -0.23766650411005
C           -4.75914495394905        1.99583802443301       -0.65679920882676
C           -5.99099714480712        2.50236776120060       -0.30284947032397
C           -9.26812060328603        1.50259216228531        1.00545123336176
C          -10.50776406111780        2.01037134537139        1.34714926362484
H          -11.62615998186149        3.75654818997771        1.88699364109375
H           -9.66905580905832        5.25473121586145        1.75555575295695
H           -7.46410505781709        4.35561150283059        1.15254498218380
H           -7.03005086738086        0.02474932737538        1.74161581628698
H           -4.83736734286195       -0.87729635535766        1.12858114477196
H           -2.51926045589048        2.37476044072277        0.98689643106238
H           -0.59282116490338        3.87107797077522        0.71596415708338
H            1.84164433546153        3.73710196783227        0.95432002602418
H            3.75913217954368        5.25622292086352        0.70824740052723
H            4.37821186979826        6.11897793543359       -1.51925067226138
H            3.06610268630237        5.45164428585255       -3.50095900050502
H            1.14979266682711        3.92891097346264       -3.25709170565649
H            0.71588104524916        1.58337240813654       -2.64749453039789
H           -1.21103849593702        0.08822727015717       -2.37973088214708
H           -4.81303513946005       -1.47570908831095       -1.49644322281363
H           -4.51464969198264       -3.91337613285865       -1.68579919688868
H           -3.53836155983367       -6.51754526477318       -1.60255617635228
H           -2.14312172034899       -8.53787537421556       -1.31584483838134
H            0.13919783055380       -8.36953533674470       -0.44282222104663
H            1.10122410068953       -6.18824018685586        0.19533674792849
H            0.88409544184487       -4.61047081616266        2.13681943694460
H            3.00368334967438       -3.67111316119060        3.00438588920391
H            6.79646117302687       -1.89626654342329        2.73811811897068
H            8.69956316379658       -0.86048050690280        3.91993584626554
H            9.05398284730784        1.58084906023980        3.78682793333255
H            7.47645156163797        2.97946754037385        2.50068710581605
H            5.57992567245948        1.94853907422503        1.33078765383728
H            7.13397429688095       -0.20630938434958       -0.46452038258290
H            8.31663645730759        1.27323094361633       -2.02380977999957
H            7.06170351469483        2.92400458558162       -3.36629021501336
H            4.60363357102966        3.06830428302585       -3.14370793810939
H            3.42057141634555        1.59842370353878       -1.56233635577483
H            1.04726974291654       -1.89918705819338       -1.17672038191850
H           -0.89278498922755       -1.05354116566155        0.19342915587728
H           -4.12335272785698        2.54176058460988       -1.33820503173684
H           -6.31595866928779        3.44343343050262       -0.72103908979446
H           -9.16253772206943        0.45141649575392        0.77923583679775
H          -11.36203252691696        1.35062516852924        1.40123239678951
