  98
       -150.97276954
 C        -10.5215382621        3.5200682386        1.4958548519
 C         -9.3872000746        4.3144933064        1.4808485502
 C         -8.1601888403        3.7692973709        1.1527878587
 C         -8.0452494830        2.4163415795        0.8387566474
 C         -6.7435457168        1.8338501779        0.4913458288
 C         -6.3791227660        0.5688240934        0.9523937526
 C         -5.1595667880        0.0154144850        0.6287847372
 C         -4.2623428400        0.7089216938       -0.1865683042
 N         -3.0319942146        0.1612224037       -0.5349157579
 C         -1.9090918847        0.9932534599       -0.6592559129
 C         -1.6648986273        2.0020393327        0.2713515467
 C         -0.5250803425        2.7729108859        0.1757105868
 C          0.3873486976        2.5781841566       -0.8590097002
 C          1.6009391309        3.4037593425       -0.9479834882
 C          2.4114074706        3.5892619730        0.1687657019
 C          3.5513785750        4.3668623059        0.0855114922
 C          3.8924814845        4.9776675782       -1.1092386675
 C          3.0878965988        4.8053623011       -2.2227257903
 C          1.9539876801        4.0183334911       -2.1460840668
 C          0.1225799824        1.5880840175       -1.8029686288
 C         -1.0029129194        0.7980980587       -1.7012977606
 C         -2.8499682748       -1.2194256011       -0.6500684464
 C         -3.8641642721       -2.0373178131       -1.1757379101
 C         -3.7024251272       -3.4027050610       -1.2680904606
 C         -2.5010851022       -3.9743040317       -0.8620509055
 C         -1.9944717855       -5.3136572754       -0.7929661870
 C         -2.5216200357       -6.5563475641       -1.1225445767
 C         -1.7376840771       -7.6773365959       -0.9394180770
 C         -0.4377002940       -7.5728815641       -0.4462298033
 C          0.1106190742       -6.3501103694       -0.1111497174
 C         -0.6780123261       -5.2203739284       -0.2745267208
 N         -0.3755446656       -3.8985158526       -0.0356020230
 C          0.8355271992       -3.3595815596        0.4254770425
 C          1.4271728728       -3.8178277089        1.5930619081
 C          2.5815682964       -3.2129902330        2.0716968582
 C          3.1652717849       -2.1407353476        1.4024966077
 N          4.2116977704       -1.4670256497        1.8692559876
 C          4.7746131713       -0.4648996494        1.2062092493
 C          5.7921170512        0.3234918771        1.8966494213
 C          6.6897054414       -0.3101359045        2.7562724085
 C          7.6347360905        0.4267513865        3.4434953122
 C          7.6910968569        1.8028894692        3.2940539928
 C          6.7854632724        2.4414556199        2.4602607739
 C          5.8397592545        1.7125510613        1.7678865606
 C          4.3231842203       -0.1689795094       -0.1017391781
 C          5.0323181183        0.7075176791       -1.0261943593
 C          6.4249844784        0.8099475966       -1.0331314094
 C          7.0591672013        1.6150724887       -1.9576031257
 C          6.3237594837        2.3142601224       -2.9024153583
 C          4.9444070998        2.1885774167       -2.9259201690
 C          4.3022854966        1.3945235018       -1.9981678865
 N          3.2149388140       -0.7577302350       -0.5396771844
 C          2.5816947168       -1.7024963708        0.1490002845
 C          1.4232229359       -2.3183835743       -0.3002383119
 C         -1.4669553499       -3.1371019135       -0.3796644892
 C         -1.6401135239       -1.7727494115       -0.2417690757
 C         -4.6200007686        1.9781391445       -0.6482974763
 C         -5.8364486313        2.5285942238       -0.3086746012
 C         -9.1933648806        1.6263548912        0.8599421800
 C        -10.4201609025        2.1746947576        1.1830570121
 H        -11.4800483490        3.9473213807        1.7502579362
 H         -9.4592300053        5.3636005303        1.7284043275
 H         -7.2765133733        4.3909070609        1.1602775676
 H         -7.0504242917        0.0255344726        1.6008590802
 H         -4.8843436243       -0.9539391256        1.0165825998
 H         -2.3661433893        2.1610697946        1.0774727251
 H         -0.3389980203        3.5446476050        0.9082013752
 H          2.1526335212        3.1035054210        1.0988766643
 H          4.1735527880        4.5038348199        0.9582108923
 H          4.7816755838        5.5868498083       -1.1718581731
 H          3.3449415955        5.2895567881       -3.1536971450
 H          1.3226427000        3.8899428296       -3.0139145702
 H          0.8164723710        1.4246418939       -2.6141894045
 H         -1.1926643145        0.0206936544       -2.4267400619
 H         -4.7820945165       -1.5778853590       -1.5098935160
 H         -4.4970964558       -4.0195322605       -1.6591745409
 H         -3.5237950896       -6.6375592041       -1.5157811019
 H         -2.1301291779       -8.6523043467       -1.1869460356
 H          0.1542029561       -8.4681606890       -0.3264133366
 H          1.1221665332       -6.2732951629        0.2572837709
 H          0.9705592127       -4.6233094433        2.1470953208
 H          3.0254574246       -3.5364819124        2.9996943035
 H          6.6376163836       -1.3824385790        2.8685489129
 H          8.3310656301       -0.0743476160        4.0999858683
 H          8.4319615600        2.3770612344        3.8301876350
 H          6.8162903120        3.5162181178        2.3543254894
 H          5.1286431158        2.2126458631        1.1278109124
 H          7.0107481043        0.2457169910       -0.3235512644
 H          8.1369114894        1.6888544734       -1.9495329689
 H          6.8254710715        2.9413345461       -3.6242824460
 H          4.3669671942        2.7115093823       -3.6735640647
 H          3.2289536614        1.2934976317       -2.0044471778
 H          1.0018365428       -2.0047141617       -1.2416848446
 H         -0.8675468540       -1.1537847308        0.1860696140
 H         -3.9373294565        2.5210345026       -1.2853473727
 H         -6.1038556842        3.5007071679       -0.6956359991
 H         -9.1240094096        0.5802308882        0.5990907478
 H        -11.3020459983        1.5507543031        1.1886401733
