64
 energy: -98.718504602637 gnorm: 0.000059212818 xtb: 6.7.1 (edcfbbe)
C            7.36062114530669       -3.03814609545651       -1.85641133880226
C            6.08639008885232       -3.40063179045631       -1.42287707594711
C            5.26058640071533       -2.50081147240354       -0.77686201219942
C            5.73493761594458       -1.21130302435741       -0.57748571867336
C            7.03538782568225       -0.84085597312042       -0.99431467492098
C            7.84744288407937       -1.76428669044676       -1.64083042151544
C            7.21491767171255        0.52787850615260       -0.59933368510317
C            8.25757167400441        1.43550925558985       -0.73853070414978
C            8.09205153909481        2.71517112809344       -0.24722110287349
C            6.89996657646791        3.09874991108379        0.36501400856501
C            5.84856323174748        2.21491722722818        0.51436561451524
C            6.01604820564148        0.92037942349437        0.04123647413305
N            5.13173268023085       -0.13862434706440        0.04595689578874
C            3.83647917732765       -0.12096759829774        0.59117708677511
C            3.63071740098714        0.30276914578729        1.90163071030097
C            2.35684100156181        0.34631513135789        2.42582489880879
C            1.25061110975615       -0.04283358020037        1.66343529541053
N            0.00000686471110        0.00000667131600        2.25083450374945
C           -1.25060286095170        0.04285606058304        1.66344904805100
C           -2.35683307483503       -0.34623235020037        2.42586947060304
C           -3.63071404459313       -0.30268641201134        1.90168669105030
C           -3.83648125561426        0.12100189286094        0.59121837685888
N           -5.13173926891236        0.13864342036541        0.04600544935461
C           -5.73494761260233        1.21129827784743       -0.57747463243620
C           -5.26060693543420        2.50080438393142       -0.77688654207653
C           -6.08640640534419        3.40059027839362       -1.42295511612306
C           -7.36061151702959        3.03806495370208       -1.85652992051758
C           -7.84742115506627        1.76420637386157       -1.64091952387578
C           -7.03537834856298        0.84081582262884       -0.99433257337082
C           -7.21493210907117       -0.52788044273483       -0.59923184648569
C           -8.25759849263787       -1.43550811408808       -0.73835792603093
C           -8.09206750539228       -2.71515673374952       -0.24701653079169
C           -6.89996013139320       -3.09872587955998        0.36518201256876
C           -5.84855219423794       -2.21488933388651        0.51448294507686
C           -6.01604487194647       -0.92036812362291        0.04131304749253
C           -2.74402685178998        0.53633902149427       -0.16405210022856
C           -1.47035653392360        0.51483183088196        0.36766323859305
C            1.47035903592728       -0.51485484525492        0.36766543921048
C            2.74402274647648       -0.53634984963663       -0.16406667480745
H            7.97523710799224       -3.77016573091401       -2.35998467729498
H            5.73823807568271       -4.40932142827862       -1.59276530309628
H            4.28178702045952       -2.79647565348542       -0.43052448958000
H            8.84058843065463       -1.48793954652048       -1.96305231975254
H            9.17647798301508        1.14262921050181       -1.22471596012859
H            8.89193165236048        3.43504761070574       -0.34316671145828
H            6.79494554626986        4.11112609446150        0.72776248095330
H            4.92333811185177        2.52605108358940        0.97562922379567
H            4.47631836239833        0.59171385382421        2.50770743505221
H            2.20860354180266        0.67794823330544        3.44382937579390
H            0.00001298661136        0.00002655051700        3.26138044828471
H           -2.20859104227836       -0.67782438715502        3.44388683795482
H           -4.47631372354437       -0.59159685854430        2.50778263805801
H           -4.28178164245271        2.79646690626511       -0.43061875275511
H           -5.73823424438695        4.40925910660050       -1.59293215099604
H           -7.97524777184240        3.77007770958198       -2.36009124425391
H           -8.84060157157620        1.48787111884661       -1.96304624242392
H           -9.17646155583795       -1.14268520170037       -1.22465844727708
H           -8.89191710897230       -3.43506255578621       -0.34299885595139
H           -6.79494802681177       -4.11107641667402        0.72800347674512
H           -4.92335046713879       -2.52598348061433        0.97581975888349
H           -2.89655298079784        0.87940964367501       -1.17646883012385
H           -0.64555825940428        0.88559318988288       -0.21932912474296
H            0.64556144771841       -0.88565633779375       -0.21930242568047
H            2.89654542134380       -0.87946777440148       -1.17646722599292
