64
 energy: -98.616760585303 gnorm: 0.000024702215 xtb: 6.7.1 (edcfbbe)
C            6.53215366020126       -3.62111110042762       -1.30540850684283
C            5.16303125167017       -3.39890270585835       -1.45095379230238
C            4.58400138435238       -2.20066466379211       -1.05744280426984
C            5.40260077399345       -1.23147614106630       -0.50343393176695
C            6.80434602271598       -1.43381966878536       -0.38875051040976
C            7.36196106212867       -2.64747985597370       -0.78603681151107
C            7.35286368478279       -0.22684917806106        0.14210258944131
C            8.64346822072783        0.16925332420758        0.48723386713057
C            8.82874739118687        1.42188753514265        1.03751172773236
C            7.74967469096419        2.27532855148106        1.26628670533028
C            6.45648811578187        1.90606260724124        0.92392967301442
C            6.26545978850193        0.66714176685150        0.33654618193415
N            5.08953134740580        0.04745427761338       -0.06355590191943
C            3.82446449408146        0.60333645205747       -0.03146422959122
C            2.72068505952417       -0.14058580676721        0.44117799855873
C            1.46600383778958        0.39823861243821        0.46829495465411
C            1.23560334361710        1.71553585267360        0.00365160207563
N           -0.00145377705627        2.29951804304316        0.00194463350793
C           -1.23778499565664        1.71407841097841       -0.00131802678821
C           -2.35540170936783        2.47258012374861        0.42610694565538
C           -3.60881542881121        1.93202284759145        0.44564602118489
C           -3.82525099186439        0.59856539816131        0.03098191644126
N           -5.08945067055923        0.04072193060019        0.06275989992232
C           -6.26651114253577        0.65906561284619       -0.33606064721595
C           -6.45952094159540        1.89756437368905       -0.92368793271121
C           -7.75352473276353        2.26541056335603       -1.26450042478237
C           -8.83146064841792        1.41101325884368       -1.03390068483509
C           -8.64420933612191        0.15873122685286       -0.48349680065997
C           -7.35273934513049       -0.23601007437889       -0.14003888010862
C           -6.80227477209678       -1.44233999101385        0.39023946356957
C           -7.35815424020217       -2.65649906010802        0.78844683244413
C           -6.52667684135476       -3.62929510729628        1.30671213719143
C           -5.15755931949355       -3.40576878532642        1.45021540266944
C           -4.58027048929786       -2.20694535225070        1.05590917438198
C           -5.40059405023596       -1.23855179933878        0.50307901527592
C           -2.72018890566201       -0.14354051821057       -0.44150825212529
C           -1.46617336550480        0.39688952558890       -0.46725171469521
C            2.35189739940960        2.47571404117150       -0.42423442455373
C            3.60595754776729        1.93671431570973       -0.44527178518253
H            6.94803230088099       -4.56859287409782       -1.61718560372146
H            4.54243666640362       -4.16978334575291       -1.88313774174941
H            3.52726236490909       -2.03376120405822       -1.19901602497977
H            8.42469492651622       -2.81558536682304       -0.69357088115076
H            9.47814589549437       -0.49836777164863        0.33291283206222
H            9.82306174950473        1.74496307168288        1.31118309916881
H            7.92112879684689        3.23819127352386        1.72418387769444
H            5.62835290378717        2.56566975320476        1.13312785441573
H            2.89301009704716       -1.12682119646990        0.84432918726537
H            0.65092260503677       -0.15618354644250        0.90559116440704
H           -0.00206678343499        3.31419476464328        0.00266315947227
H           -2.19826616963818        3.48427414109137        0.77174799288891
H           -4.44068555323066        2.50418795844167        0.82598044241316
H           -5.63229299146488        2.55789585906926       -1.13421567134422
H           -7.92653925088597        3.22790031719971       -1.72259522764521
H           -9.82647393728657        1.73304028020162       -1.30626772596441
H           -9.47800810837782       -0.50966689345436       -0.32780472233784
H           -8.42086423582561       -2.82560122989285        0.69755257229805
H           -6.94120407823832       -4.57713638618151        1.61919744806465
H           -4.53556720575852       -4.17604120027376        1.88146900420698
H           -3.52349731992299       -2.03905811019951        1.19600310190160
H           -2.89095106571536       -1.12964878387127       -0.84562503247048
H           -0.65004751506170       -0.15615250571773       -0.90433941219342
H            2.19317875796074        3.48743534691675       -0.76907051842458
H            4.43674750941444        2.51011197515111       -0.82610722142469
