  92
       -146.87165142
 C         -9.3160811095        4.8967335671        0.1181131878
 C         -9.6954776643        3.8012561356        0.8769116908
 C         -8.9588834980        2.6337327852        0.8378879145
 C         -7.8265416666        2.5447189318        0.0277592061
 N         -7.0730293874        1.3673996821       -0.0134172777
 C         -7.7122584206        0.1240220918        0.0440504742
 C         -7.1276225261       -0.9437376782        0.7263696449
 C         -7.7609793036       -2.1699004520        0.7710815608
 C         -8.9861569984       -2.3511788266        0.1498892728
 C         -9.5735411002       -1.2928478997       -0.5241001119
 C         -8.9438406790       -0.0649257497       -0.5835886277
 C         -5.6810542593        1.4314980505       -0.0864641727
 C         -4.9757095694        2.4497930528        0.5597551708
 C         -3.6004227284        2.4855126018        0.5163640532
 C         -2.8707297829        1.4948594890       -0.1497982393
 C         -1.4136925100        1.4872120197       -0.1029819763
 C         -0.6729521745        2.6745193525       -0.0960618426
 C          0.7030150080        2.6661088119       -0.0916521834
 C          1.4305023771        1.4708050002       -0.0513456802
 C          2.8865793611        1.4681408311        0.0205392777
 C          3.5825943238        0.4825196426        0.7270014638
 C          4.9571753989        0.4510974541        0.7458609824
 C          5.6981478932        1.4078498399        0.0489305792
 N          7.0925208075        1.3534152807        0.0327101450
 C          7.8377466580        2.5365851319        0.0272330017
 C          9.0087526435        2.6335552843       -0.7252037983
 C          9.7378475869        3.8065250700       -0.7281227939
 C          9.3129229120        4.8994578405        0.0101430373
 C          8.1497708280        4.8089846142        0.7578280644
 C          7.4165159989        3.6387699193        0.7721439917
 C          7.7418866477        0.1143203610        0.0137130305
 C          8.9437335421       -0.0637137951        0.6995475473
 C          9.5812645471       -1.2888676206        0.6785849457
 C          9.0312219261       -2.3548799451       -0.0145993668
 C          7.8356596543       -2.1842968578       -0.6939062262
 C          7.1949027229       -0.9611927230       -0.6874600499
 C          5.0130215175        2.4149655427       -0.6351727888
 C          3.6370648642        2.4488806661       -0.6375458979
 C          0.7233943411        0.2523897368       -0.0519352366
 N          1.3583222782       -0.9171583654       -0.0474332836
 C          0.7069398420       -2.0691098077       -0.0195026612
 C         -0.7353483319       -2.0600571665       -0.0481338638
 N         -1.3713093585       -0.8994164229       -0.0516434734
 C         -0.7208318555        0.2611876722       -0.0772115781
 C         -1.3987921218       -3.2941404628       -0.0643636999
 S         -3.1262730951       -3.4914057010       -0.1437153985
 C         -2.9407631157       -5.2114374093       -0.1209155057
 C         -1.6508969806       -5.6158849321       -0.0596927460
 C         -0.7370922205       -4.5300958917       -0.0285538413
 C          0.6749311249       -4.5386472100        0.0313032481
 C          1.5737317416       -5.6354299798        0.0947375162
 C          2.8689528529       -5.2470918582        0.1461420170
 S          3.0779298124       -3.5298641096        0.1201025829
 C          1.3534309591       -3.3111950406        0.0323955125
 C         -3.5873467103        0.5030480363       -0.8261785279
 C         -4.9618842672        0.4707124208       -0.8007586584
 C         -7.4515940214        3.6491487008       -0.7379634661
 C         -8.1916426620        4.8140703523       -0.6871307867
 H         -9.8926251329        5.8083133467        0.1542270968
 H        -10.5670126402        3.8590830703        1.5119525557
 H         -9.2488188019        1.7847318228        1.4393148867
 H         -6.1776966167       -0.8048967767        1.2202093822
 H         -7.2957884576       -2.9872104192        1.3015367907
 H         -9.4795626405       -3.3102119610        0.1899341177
 H        -10.5255926980       -1.4261864869       -1.0161729356
 H         -9.3974603495        0.7544007987       -1.1217875742
 H         -5.5176174234        3.1967106284        1.1216327992
 H         -3.0787074854        3.2594970497        1.0590077139
 H         -1.1966703091        3.6180316969       -0.1262768609
 H          1.2373025066        3.6040406935       -0.0839575704
 H          3.0325577385       -0.2614881086        1.2799844308
 H          5.4720070163       -0.3154988021        1.3056432255
 H          9.3347967509        1.7863940517       -1.3105414752
 H         10.6400154705        3.8705080520       -1.3185949675
 H          9.8841767998        5.8150684661        0.0027445431
 H          7.8146609573        5.6537806328        1.3411590097
 H          6.5160326321        3.5649738195        1.3643335927
 H          9.3673212726        0.7614870647        1.2530357489
 H         10.5094256867       -1.4141380116        1.2161925962
 H          9.5304315880       -3.3116692437       -0.0244152023
 H          7.4001433323       -3.0076950210       -1.2400468580
 H          6.2681940793       -0.8301919595       -1.2260023020
 H          5.5726317920        3.1561879390       -1.1872447068
 H          3.1331547262        3.2149251507       -1.2074999224
 H         -3.8208325787       -5.8232560729       -0.1557819787
 H         -1.3498150958       -6.6477657240       -0.0386382202
 H          1.2585172610       -6.6631862528        0.1026932563
 H          3.7405163457       -5.8695351949        0.1994309090
 H         -3.0543318011       -0.2461835819       -1.3886291001
 H         -5.4936155170       -0.3023476786       -1.3352980306
 H         -6.5813545079        3.5815108710       -1.3741021799
 H         -7.8925259201        5.6609128037       -1.2867478262
