92
 energy: -146.978881693068 gnorm: 0.000028318598 xtb: 6.7.1 (edcfbbe)
C           -9.14249005335292       -2.44935307276450       -0.71977206461821
C           -7.98804764866494       -2.45972018420342        0.04670435654305
C           -7.30880176128914       -1.28465916420929        0.30473711328019
C           -7.77402785734411       -0.07601518855385       -0.21338995206105
N           -7.08053268046776        1.11688736407899        0.03830804190347
C           -7.79047586238692        2.30010232481971        0.27552294101428
C           -7.31701076923004        3.52032598869360       -0.20756733825017
C           -8.02271910991225        4.68431119017184        0.02919455048168
C           -9.21263553728525        4.65285752913040        0.73864162630988
C           -9.69006372106618        3.44297211382917        1.21653781511484
C           -8.98637321112790        2.27507712336878        0.99353428826575
C           -5.68492147996967        1.11549973423475        0.04308780615373
C           -4.96880289313152        1.92445312452482        0.92803636887330
C           -3.59075044207831        1.90308611054900        0.93569024972578
C           -2.87739455953469        1.06737423624911        0.07502898645655
C           -1.41450613319864        1.03383267412971        0.11011696548782
C           -0.66652083140308        2.18295764215868        0.24078944503359
C            0.73139396085419        2.16047557899454        0.24756793418896
C            1.44646750450531        0.98967285416110        0.12211846486819
C            2.91155690131930        0.99169302667695        0.09896907075937
C            3.62996436185437        1.80787697081532        0.97367726705844
C            5.00801793394146        1.82744188413302        0.95907550989758
C            5.71793508550512        1.02923107482114        0.06008342478161
N            7.11485012264842        1.04888195928316        0.04252925322574
C            7.80540539357388        0.95106708591859       -1.17176345419113
C            9.00319975475716        0.24031718360958       -1.25019418582947
C            9.68808813907475        0.15898746024085       -2.44748081691362
C            9.18971437103937        0.77341763012868       -3.58509943974166
C            7.99661578014561        1.47467776209809       -3.51450567331088
C            7.30939816504295        1.56971086092759       -2.31968958946548
C            7.82640775541346        1.16662570280689        1.24398001764467
C            8.98768495774378        1.93660001894407        1.30728840923759
C            9.68840777283629        2.04317853667989        2.49347320063740
C            9.24135962896474        1.39510038713573        3.63378569669995
C            8.08575047553951        0.63243507862283        3.57722138534004
C            7.38268801339300        0.51308391620211        2.39377369219413
C            5.00362936042296        0.21416909861079       -0.81958956617986
C            3.62568971216575        0.19794536011140       -0.79816847894982
C            0.71530156689180       -0.22830831173682        0.02139577564759
N            1.37535297159322       -1.39121635648664       -0.03198834254892
C            0.68177890134237       -2.51267676485795       -0.10233191741619
C           -0.75816965079884       -2.48981784712750       -0.09768137594761
N           -1.41480974499129       -1.34656026414183       -0.02847619945684
C           -0.71816613166335       -0.20567629585712        0.01889886902424
C           -1.44763806659152       -3.72697126207122       -0.15859349571140
S           -3.16931662469792       -3.91168975386733       -0.16819570795936
C           -2.99775851950597       -5.62620728752146       -0.26301365007689
C           -1.70675072777647       -6.03883473772098       -0.28588055027484
C           -0.79396692304441       -4.95467964511649       -0.22671273370743
C            0.63306650177782       -4.97788922252651       -0.23271632519132
C            1.50821681638643       -6.09223930859586       -0.29868509682443
C            2.81253155630509       -5.72353591291488       -0.28626772075989
S            3.04272022409044       -4.01582488102023       -0.19369798814161
C            1.32830241240342       -3.77270621485561       -0.17008396474024
C           -3.59763889773998        0.27038312734955       -0.81507414861468
C           -4.97423965905870        0.29594696657815       -0.83652839654394
C           -8.93510969743668       -0.07099399951137       -0.98566669354735
C           -9.61281656824185       -1.25018228917568       -1.23044528858172
H           -9.67257014217394       -3.36905953938503       -0.91719586199180
H           -7.61517544661285       -3.38823900757032        0.45375321085582
H           -6.41296926456176       -1.29450058969184        0.90820273039193
H           -6.39634684899923        3.54662381409735       -0.77212894889821
H           -7.64515748693810        5.62179658404081       -0.35280327814587
H           -9.76354401478458        5.56405536889647        0.91742963530635
H          -10.61411054071653        3.40839756533904        1.77529354872191
H           -9.35666515445280        1.33489468480674        1.37559498624181
H           -5.50336702816359        2.55906776858294        1.61984640154568
H           -3.05594450205225        2.51484008271699        1.64773263177001
H           -1.17127952157025        3.13584211824082        0.30566182353692
H            1.26479958776961        3.09728801157718        0.31791799067816
H            3.09933240992919        2.42250917609694        1.68633231625953
H            5.54728668862573        2.46424293504498        1.64529023875278
H            9.38996132026157       -0.24777871873804       -0.36744487731614
H           10.61409251780324       -0.39572770564194       -2.49353654607475
H            9.72651312548776        0.70599038891071       -4.51947524668397
H            7.60186628443614        1.96093959361416       -4.39491347476179
H            6.38499637261283        2.12629912010857       -2.26577690859621
H            9.33330661139986        2.45012807637646        0.42185604424289
H           10.58541238013583        2.64436462098613        2.52915044373845
H            9.78988347086007        1.48307418753957        4.55961940108971
H            7.73244901648137        0.11877845293406        4.45963731330417
H            6.48697048512816       -0.08951245462564        2.34924687727396
H            5.53946473417053       -0.41095715386005       -1.51877900178168
H            3.09059181913570       -0.43677148173381       -1.48673802286542
H           -3.88117628313305       -6.23308912821059       -0.29735360053686
H           -1.40826755314110       -7.06940487870656       -0.34269559634085
H            1.17466893537620       -7.11217213360591       -0.35248418891034
H            3.67494281024245       -6.35958669392199       -0.32696540873874
H           -3.06728770276346       -0.36241619767877       -1.50899908429227
H           -5.51334370790441       -0.32135039765312       -1.54002654750678
H           -9.29866408027089        0.86116219997112       -1.39316645442484
H          -10.50971163011071       -1.23262638474180       -1.83258791619340
