92
 energy: -146.935474839841 gnorm: 0.000047815699 xtb: 6.7.1 (edcfbbe)
C           -9.24518277859248        4.98283318326188        0.17290620344993
C           -9.67297324506701        3.87721672177702        0.89120205042827
C           -8.96146636472252        2.69396320931909        0.84404169665981
C           -7.80708034473693        2.59993994400793        0.06563764350304
N           -7.08438310937363        1.40139333686843        0.01164795712175
C           -7.76695716929759        0.17791910314679       -0.00420779773335
C           -7.25550289233578       -0.92709515259005        0.67810020242383
C           -7.93162921501789       -2.13144595563354        0.65474957195752
C           -9.12731188804260       -2.25252946975841       -0.03592031830596
C           -9.64201793631251       -1.15654989130981       -0.71040126703646
C           -8.96910468598962        0.05005481522073       -0.70115252859883
C           -5.69237245900731        1.42299412315288       -0.02436767645685
C           -4.97093267488892        2.40299555047839        0.66504772724640
C           -3.59512642035393        2.40400501765683        0.64549608148661
C           -2.87662158560588        1.41696805797874       -0.04101076980190
C           -1.41968231382611        1.39507765778856       -0.00184845002369
C           -0.68214762141567        2.58533171009999        0.01373521588912
C            0.69321803539804        2.58319215244550       -0.00312473040700
C            1.42661763172127        1.39037289560793        0.00467832540277
C            2.88349604248417        1.40671809523856        0.04897739625612
C            3.60814893226118        0.44109698987514        0.75545004587254
C            4.98320947373096        0.43842133612484        0.76016628685087
C            5.69931002840147        1.40460075003409        0.04709687611759
N            7.09140659530008        1.38138564977874        0.01955132216312
C            7.81477868530854        2.58022716253764       -0.02582368153051
C            8.97017473173041        2.67859000102925       -0.80203692230485
C            9.68209211923264        3.86192394716297       -0.84087297998327
C            9.25375660470019        4.96300172821791       -0.11596638690524
C            8.10596804014005        4.87056030934685        0.65540845585105
C            7.38993393129895        3.69002135471406        0.70567935663259
C            7.77442961563395        0.15837210700807        0.03698532859948
C            8.97448816755255        0.03132597486940        0.73779491992675
C            9.64867833394324       -1.17451521171590        0.74874956449036
C            9.13726256115424       -2.27083395914724        0.07232645038123
C            7.94372787473594       -2.15061665171944       -0.62219746914189
C            7.26650974116611       -0.94690728018435       -0.64755976277945
C            4.98417124262025        2.39040729228857       -0.64070141875700
C            3.60829963153011        2.39549971533141       -0.62819171464803
C            0.72208228024977        0.16821525340798       -0.00412912708084
N            1.37473322126725       -0.99741840311335       -0.03804196415674
C            0.71728615847994       -2.15175513698927       -0.02290786678135
C           -0.72133427283275       -2.14969516715265       -0.00898879107434
N           -1.37529049128664       -0.99352689552694        0.01837771288040
C           -0.71922829916943        0.17046087837855       -0.00450156723610
C           -1.38003581940600       -3.38784477855009       -0.02271881076991
S           -3.10899273881135       -3.59772522994951       -0.04048937213659
C           -2.91291377913501       -5.31877123335479       -0.05629038743823
C           -1.61919549788043       -5.71371742310359       -0.05085432405870
C           -0.71216303158298       -4.62074791290950       -0.03353954294880
C            0.70122566816306       -4.62285046693181       -0.02690867957555
C            1.60526739311086       -5.71844154920128       -0.02334961329614
C            2.90005558996336       -5.32709731865919       -0.01315842024214
S            3.10083423122254       -3.60653027590352       -0.00747085870510
C            1.37250652778449       -3.39181011042967       -0.02283837982246
C           -3.60774063598252        0.45807025849148       -0.74999481976502
C           -4.98279394754446        0.45924241506891       -0.74717626030452
C           -7.38290684561292        3.71437986035237       -0.65929808589645
C           -8.09837852146599        4.89485058493929       -0.60045432708891
H           -9.80269849157330        5.90634775648360        0.21421898181829
H          -10.56286901032955        3.93878195582448        1.50022615041136
H           -9.28905568514531        1.83682147081386        1.41380898330050
H           -6.32939887004306       -0.83430735275712        1.22600892961050
H           -7.52361451451330       -2.97828941106962        1.18656300326440
H           -9.65407273799934       -3.19476099238268       -0.04893037281707
H          -10.57000583050332       -1.24356765793062       -1.25618397548053
H           -9.36512394602753        0.89883188423232       -1.23912614261336
H           -5.50217412617594        3.14802036432989        1.23924743366673
H           -3.06304146306928        3.14820417761860        1.21882856447989
H           -1.20994427783406        3.52699801091527        0.00492677400131
H            1.22415354571017        3.52300743144417        0.01242907320267
H            3.07706430138144       -0.30908132205085        1.31942839494356
H            5.51774508790223       -0.31088739631334        1.32512112292765
H            9.29817685678048        1.82476818088472       -1.37654211186982
H           10.57276625846167        3.92710104484445       -1.44836216713836
H            9.81163249460004        5.88657143098214       -0.15067083410255
H            7.76947432750664        5.72148686279897        1.22935545409292
H            6.50247093730982        3.61456712838651        1.31680988984148
H            9.36792593303181        0.88019388939232        1.27750290776259
H           10.57505387470793       -1.26064090289548        1.29740749375926
H            9.66488572858445       -3.21255978922957        0.08682425052216
H            7.53827608572574       -2.99769845218436       -1.15558915123279
H            6.34242215099878       -0.85486582306934       -1.19895812629001
H            5.52050117482219        3.13726085723559       -1.20773585563867
H            3.08127269708467        3.14469983665034       -1.19969815298943
H           -3.79067943516440       -5.93461563633514       -0.06914975674205
H           -1.30932350982081       -6.74316267258442       -0.05950422479920
H            1.29265402562414       -6.74708543219471       -0.02738422859032
H            3.77613864984465       -5.94544607691816       -0.00805197486608
H           -3.08179011465532       -0.29012438184499       -1.32135651980127
H           -5.52261640397978       -0.28531832881186       -1.31338934370966
H           -6.49642148898165        3.64262832068934       -1.27228209320660
H           -7.76223929821177        5.74933407030828       -1.16931586628939
