  94
       -151.50953279
 C         -5.8833323030       -5.3509465864        0.8861376318
 C         -5.0728237439       -4.5515482354        1.6756091058
 C         -4.7591564748       -3.2672806106        1.2739792508
 C         -5.2479800552       -2.7785055566        0.0650980028
 N         -4.9464580998       -1.4650953558       -0.3248227622
 C         -5.9078045757       -0.4940146613       -0.5300683628
 C         -7.2787754164       -0.6392420679       -0.6763406552
 C         -8.0251304018        0.4913391146       -0.9449952642
 C         -7.4140305305        1.7331586502       -1.0898222649
 C         -6.0558020911        1.8889675691       -0.9014205643
 C         -5.2887068616        0.7777267627       -0.5625960049
 C         -3.8960251139        0.5553026547       -0.2827570762
 C         -3.7166180204       -0.8475293846       -0.2288973917
 C         -2.4302850932       -1.4115162681       -0.2194686933
 C         -1.8888595935       -2.7310716765       -0.4226945897
 C         -2.4261904399       -3.9786224374       -0.7281472840
 C         -1.5778328833       -5.0500290422       -0.9225094422
 C         -0.1966537327       -4.9021544421       -0.8523851359
 C          0.3685371900       -3.6682366961       -0.5982953860
 C         -0.4812621602       -2.5954756952       -0.3799392937
 N         -0.1554445927       -1.2659358063       -0.1804245153
 C          1.1159972491       -0.7436441432       -0.4420022072
 C          1.2471304071        0.2482576120       -1.4463705410
 C          2.4650339637        0.7714564547       -1.7562231952
 C          3.6204241968        0.3238679934       -1.0773362083
 N          4.8160199441        0.8447708671       -1.3757169883
 C          5.8698174017        0.4006322263       -0.7148731618
 C          7.1717392785        0.9511440988       -1.0190456834
 C          7.2829310727        1.9411978510       -1.9994657749
 C          8.5063820840        2.4844111190       -2.3137292514
 C          9.6418897212        2.0401350669       -1.6455917139
 C          9.5457475527        1.0655709839       -0.6765063528
 C          8.3147704603        0.4935150370       -0.3340743979
 C          8.1859461659       -0.5371784848        0.6870824707
 C          9.2838108609       -1.0322814921        1.4006942153
 C          9.1367492982       -2.0073435186        2.3629686506
 C          7.8809102004       -2.5288911784        2.6521611865
 C          6.7832761223       -2.0626304106        1.9675499099
 C          6.9187402990       -1.0741645962        0.9887695372
 C          5.7429215222       -0.6086173254        0.2867488395
 N          4.5691331645       -1.1323195902        0.5870389642
 C          3.4926825089       -0.6858430217       -0.0763710255
 C          2.2206018667       -1.2087235265        0.2272499748
 C         -1.3245204283       -0.5411223559       -0.0876558907
 C         -1.4957687960        0.8316153068        0.1472860908
 C         -0.6348455163        1.9159740584        0.5369219397
 C          0.6858411281        2.0189152477        0.9667419534
 C          1.1820971299        3.2555530121        1.3248010320
 C          0.3806652167        4.3931185062        1.2965716754
 C         -0.9488176633        4.3126024729        0.9336586683
 C         -1.4454660174        3.0743621792        0.5563053529
 N         -2.7435366219        2.7324907668        0.2280657539
 C         -3.8291746987        3.5853963955        0.4923949875
 C         -3.9379446010        4.8009853511       -0.1743684139
 C         -4.9915050536        5.6502936479        0.1126019780
 C         -5.9370288725        5.2937421122        1.0596228513
 C         -5.8255580500        4.0851931206        1.7270106272
 C         -4.7727956780        3.2330967533        1.4522481113
 C         -2.7940933616        1.3744626897        0.0069578783
 C         -6.0572773521       -3.5837769770       -0.7306022389
 C         -6.3730757606       -4.8648030844       -0.3147360376
 H         -6.1299685721       -6.3526734178        1.2041120196
 H         -4.6874875009       -4.9282477937        2.6111985054
 H         -4.1295353431       -2.6370776332        1.8839128636
 H         -7.7523120619       -1.6047488914       -0.5857022622
 H         -9.0945627059        0.4052663559       -1.0673535188
 H         -8.0137666359        2.5921509745       -1.3521427313
 H         -5.6041121858        2.8559988017       -1.0443943763
 H         -3.4868221101       -4.1194859184       -0.8376639036
 H         -1.9963839710       -6.0193429118       -1.1497192109
 H          0.4422640545       -5.7564455614       -1.0192458293
 H          1.4401654578       -3.5425147229       -0.5913152369
 H          0.3574634116        0.5757445535       -1.9626248584
 H          2.5811321251        1.5263664096       -2.5176685577
 H          6.3802015365        2.2602233675       -2.4963016900
 H          8.5876365121        3.2486712059       -3.0722022307
 H         10.6074781441        2.4606732177       -1.8862967293
 H         10.4484435852        0.7473794837       -0.1799816647
 H         10.2737738227       -0.6522928523        1.2052067552
 H         10.0051187375       -2.3670167937        2.8957733686
 H          7.7713652280       -3.2926153490        3.4075604406
 H          5.7933301998       -2.4431288281        2.1641719624
 H          2.1389899322       -1.9482375722        1.0084947659
 H          1.3143939565        1.1491238641        1.0543032009
 H          2.2089869840        3.3389665715        1.6486650851
 H          0.7966968508        5.3459326223        1.5879856021
 H         -1.5866400587        5.1829287346        0.9641235146
 H         -3.2072290531        5.0638322351       -0.9250626975
 H         -5.0774178949        6.5911990212       -0.4106279144
 H         -6.7599900246        5.9577760421        1.2769788334
 H         -6.5597037012        3.8059157428        2.4675719703
 H         -4.6760139269        2.2913105795        1.9710011072
 H         -6.4110024177       -3.2121029918       -1.6805548306
 H         -6.9979451286       -5.4888359111       -0.9365512333
