  94
       -151.45936616
 C         -5.5513216157       -5.5517899288       -0.9051608792
 C         -6.2683882436       -4.9261734565        0.1011220292
 C         -6.0607324043       -3.5860497076        0.3746531643
 C         -5.1278944433       -2.8671640158       -0.3647471315
 N         -4.9375201282       -1.4965520014       -0.1140043043
 C         -5.9216954081       -0.5616460731       -0.3714624306
 C         -7.2598880478       -0.7773840034       -0.6603085284
 C         -8.0411295213        0.3203769045       -0.9634547021
 C         -7.4865439257        1.5954542462       -1.0192678743
 C         -6.1503823358        1.8111004577       -0.7486834251
 C         -5.3499458454        0.7323419459       -0.3806122295
 C         -3.9547439674        0.5560457887       -0.0823716515
 C         -3.7386618838       -0.8397937054        0.0365128078
 C         -2.4541525614       -1.3618915928        0.2456241192
 C         -1.9068762765       -2.6701693447        0.4825867854
 C         -2.4338927530       -3.9070875415        0.8437460535
 C         -1.5813984173       -4.9846664221        0.9779732881
 C         -0.2122888877       -4.8565713268        0.7612693966
 C          0.3466528994       -3.6285718952        0.4670280286
 C         -0.5021498646       -2.5364014059        0.3696993957
 N         -0.1854677955       -1.2113110800        0.1530269568
 C          1.0791939457       -0.7795523838       -0.2774560337
 C          1.1985073026       -0.1213208776       -1.4987613826
 C          2.4388570537        0.2883744079       -1.9494481653
 C          3.5929631662        0.0458298498       -1.2054249738
 N          4.8017375991        0.4211750414       -1.6060558068
 C          5.8921871992        0.1991460364       -0.8864128460
 C          7.1827246019        0.5989307919       -1.3496076738
 C          7.2904679713        1.2279077816       -2.6013798781
 C          8.5097733284        1.6239068643       -3.0845335906
 C          9.6585472082        1.3993672290       -2.3243689590
 C          9.5716766711        0.7869782483       -1.0974719631
 C          8.3407139049        0.3688906279       -0.5699356060
 C          8.2131218080       -0.2762091130        0.7153961130
 C          9.3070300360       -0.5250549647        1.5579210469
 C          9.1523937276       -1.1415355830        2.7761008280
 C          7.8874246226       -1.5411891788        3.2096380069
 C          6.7959877614       -1.3134471424        2.4134315593
 C          6.9348609604       -0.6828481506        1.1654624503
 C          5.7685785320       -0.4578634296        0.3717454299
 N          4.5717481767       -0.8550039359        0.7785977109
 C          3.4696789393       -0.6444888079        0.0642973607
 C          2.2083189143       -1.0398617531        0.4957298498
 C         -1.3491512171       -0.4798446706        0.1346399792
 C         -1.5325707354        0.9134350546        0.1452372849
 C         -0.6722335839        2.0544068079        0.3134009644
 C          0.6891202468        2.2384729628        0.5451144738
 C          1.1763446183        3.5170177074        0.7232288228
 C          0.3319178784        4.6232959868        0.7102663341
 C         -1.0284347828        4.4702713854        0.5323901200
 C         -1.5179297119        3.1890980876        0.3290571840
 N         -2.8314578983        2.7848455184        0.1911380986
 C         -3.9156246191        3.6215107653        0.5035961582
 C         -4.1258200877        4.7934832054       -0.2157980255
 C         -5.1776134676        5.6267396541        0.1207779818
 C         -6.0223781456        5.2967572213        1.1674914968
 C         -5.8121471303        4.1298686430        1.8839428876
 C         -4.7594354725        3.2950358263        1.5611877090
 C         -2.8567332286        1.4130092841        0.0901503327
 C         -4.4156047569       -3.4930646362       -1.3828509265
 C         -4.6260329715       -4.8336910387       -1.6446718406
 H         -5.7141246934       -6.5985243141       -1.1126786949
 H         -6.9886873600       -5.4845753251        0.6805615774
 H         -6.6025020238       -3.0955744364        1.1699587103
 H         -7.6743958530       -1.7739531078       -0.6694963915
 H         -9.0886219466        0.1834090235       -1.1865864493
 H         -8.1102064878        2.4323723544       -1.2964310172
 H         -5.7413983873        2.8010657804       -0.8525401650
 H         -3.4844797269       -4.0295310679        1.0455411445
 H         -1.9859592372       -5.9465544215        1.2558490754
 H          0.4246303480       -5.7241706592        0.8470963966
 H          1.4106450529       -3.5217341099        0.3235463038
 H          0.3148139431        0.0714091897       -2.0871058064
 H          2.5417137735        0.7975577052       -2.8942509943
 H          6.3835022844        1.3868092028       -3.1647734358
 H          8.5851845091        2.1069566987       -4.0474765551
 H         10.6215961777        1.7088915218       -2.7033273745
 H         10.4790260215        0.6273200203       -0.5368018028
 H         10.2980952603       -0.2278985604        1.2537316244
 H         10.0147012142       -1.3177178788        3.4023998934
 H          7.7730062588       -2.0257434300        4.1679571522
 H          5.8043284394       -1.6085247918        2.7211103012
 H          2.1157468633       -1.5151187036        1.4594425589
 H          1.3631295669        1.4033173366        0.6100430585
 H          2.2333532312        3.6594609003        0.8918966612
 H          0.7417284151        5.6104139325        0.8632760299
 H         -1.6916247944        5.3208592820        0.5711392079
 H         -3.4791102347        5.0323086403       -1.0470049249
 H         -5.3423857703        6.5330874408       -0.4429242151
 H         -6.8444949778        5.9478476132        1.4235053287
 H         -6.4679797835        3.8714160728        2.7016099809
 H         -4.5854449073        2.3861841780        2.1170972966
 H         -3.6993803570       -2.9248269023       -1.9566927018
 H         -4.0680120735       -5.3185284840       -2.4313054101
