94
 energy: -151.466170275101 gnorm: 0.000145830445 xtb: 6.7.1 (edcfbbe)
C           -5.50283364637082       -5.54878105777728       -0.94244866679309
C           -6.24351792298789       -4.93916350393536        0.05650877536305
C           -6.05222029329207       -3.60026839184263        0.34744787683247
C           -5.11254091706853       -2.86572608584686       -0.36764006731073
N           -4.93677379130505       -1.49654090519595       -0.10028287270054
C           -5.92248356120347       -0.56538374103885       -0.36551659759316
C           -7.25777778379869       -0.78670589455404       -0.66416171207922
C           -8.04173592773897        0.30743600037633       -0.97240146783694
C           -7.49239458764031        1.58499347922649       -1.02268114147672
C           -6.15893476170376        1.80607466293843       -0.74342056289253
C           -5.35566485380383        0.73078560487908       -0.37159100800208
C           -3.96068254571287        0.55999914179333       -0.06617975085129
C           -3.74136877469510       -0.83360235393019        0.05698355986180
C           -2.45706122989590       -1.35276629621515        0.27610266685748
C           -1.91031416069550       -2.65924074974483        0.52386099785327
C           -2.44114992056122       -3.89390135694636        0.88705816947572
C           -1.59093570265790       -4.97146972693869        1.03301746123429
C           -0.22062120448887       -4.84498561312806        0.82446494091569
C            0.34127609287361       -3.61870205653854        0.52807505005920
C           -0.50511774982555       -2.52585321060112        0.42038196527273
N           -0.18736459340928       -1.20067336063695        0.19893259693016
C            1.07320420050220       -0.77073709404932       -0.24137967827046
C            1.18408081352183       -0.10451022356450       -1.45989842739519
C            2.42056812681019        0.30731590498833       -1.91741610324703
C            3.57986874003178        0.05758748681650       -1.18625654104644
N            4.78778510336034        0.43648575396309       -1.59150814623853
C            5.88604137511512        0.20260211777491       -0.88520100418465
C            7.17205133125652        0.61379160319614       -1.35157839517151
C            7.26772234842131        1.27668735590564       -2.58661177211369
C            8.48248257400238        1.68696787488854       -3.06993357473235
C            9.63800471007321        1.44335032046717       -2.32690902751815
C            9.56279927615317        0.79686874160485       -1.11674738327494
C            8.33702479091075        0.36281002061105       -0.59030142424324
C            8.22226611934233       -0.31865592214543        0.67806521521961
C            9.32613157763562       -0.60217875168788        1.49609821720514
C            9.18328740853261       -1.25205023614925        2.69834311441673
C            7.92109517621479       -1.65040198871764        3.13975346007579
C            6.82029256455547       -1.39005805198549        2.36653880828870
C            6.94760530280521       -0.72699003173126        1.13433554870331
C            5.77367351013618       -0.47524933966879        0.36024997464862
N            4.57710145317113       -0.86978428003105        0.77532600951980
C            3.46666163179673       -0.64458908877288        0.07691894948339
C            2.20894530038119       -1.03808564180950        0.51791770121432
C           -1.35401764941047       -0.47047025932163        0.16772244520696
C           -1.53990737381429        0.92200239400459        0.16953558430608
C           -0.68080995707159        2.06533201861303        0.33116643403980
C            0.67913662300782        2.25252387806715        0.56711418674860
C            1.16541445151456        3.53321150347431        0.73299743861789
C            0.32076591304887        4.63870501435886        0.70425553516187
C           -1.03889685616714        4.48279656120222        0.52367844501307
C           -1.52708204041587        3.19927724193030        0.33256933411104
N           -2.83994854904365        2.79266286220128        0.19405570469376
C           -3.92479197053222        3.63184887905080        0.49690362100459
C           -4.13508791398199        4.79597438477558       -0.23523688856229
C           -5.18708124741018        5.63266508216376        0.09187938775778
C           -6.03162571193312        5.31433000220161        1.14239994031169
C           -5.82144664248196        4.15533003027067        1.87149294054464
C           -4.76884164438740        3.31684644260022        1.55773975143136
C           -2.86417251927671        1.41957424284940        0.10566445098152
C           -4.37637739217453       -3.47592150972870       -1.37840787273884
C           -4.57009899183874       -4.81552803353238       -1.65724333681020
H           -5.65269613277817       -6.59478572263106       -1.16326892096711
H           -6.96955656473671       -5.50946792279978        0.61693488587319
H           -6.61224691334011       -3.12281510548652        1.13800638232700
H           -7.66782071371355       -1.78513060987052       -0.67665382125203
H           -9.08717106297886        0.16598694649017       -1.20249038969082
H           -8.11820640511774        2.41965322864722       -1.30182044096541
H           -5.75417962054162        2.79817804331443       -0.84330310268162
H           -3.49358443373129       -4.01405582048536        1.08068247158921
H           -1.99810268189030       -5.93172766922793        1.31281861930904
H            0.41544803354690       -5.71242119369686        0.91853867697682
H            1.40637696255154       -3.51583996184327        0.38977069563251
H            0.29602923753178        0.09403382867521       -2.03939325368701
H            2.51486952767983        0.82549038117732       -2.85825959842678
H            6.35639036951411        1.45111120274158       -3.13823659695535
H            8.54848859479779        2.19602907942650       -4.01998615104739
H           10.59713953912575        1.76507916466970       -2.70545195068414
H           10.47492564217847        0.62436990240636       -0.56794941854319
H           10.31569432427713       -0.30758505397559        1.18486355689765
H           10.05303643096149       -1.45576088535200        3.30559843585230
H            7.81567277594332       -2.16053319463250        4.08566784215875
H            5.83097755266044       -1.68535261020037        2.68149349500638
H            2.12516016694252       -1.52100159091016        1.47855485734951
H            1.35311047932476        1.41838451859287        0.64599694833557
H            2.22168549968768        3.67794430739151        0.90484679360547
H            0.72962438540172        5.62772543333909        0.84757583042093
H           -1.70268476087428        5.33337880653595        0.55135070787190
H           -3.48773190353661        5.02596522285602       -1.06851590639724
H           -5.35158334702208        6.53314236304551       -0.48130340930393
H           -6.85343291634937        5.96848516493665        1.39147250936155
H           -6.47731550746221        3.90579558163100        2.69192166425238
H           -4.59480350310077        2.41406994712455        2.12344906369132
H           -3.65512955816907       -2.89596434465819       -1.93400703022426
H           -3.99330215886739       -5.28760410268933       -2.43817558605827
