94
 energy: -151.466125121978 gnorm: 0.000049131102 xtb: 6.7.1 (edcfbbe)
C           -5.84070167264805       -5.37787125028084        0.86032021918402
C           -5.02584477467431       -4.58249318514777        1.64937707481507
C           -4.72944076159623       -3.28969533147181        1.26179997806763
C           -5.24087082618295       -2.78867913868073        0.06759865345828
N           -4.95749786672829       -1.46688017505184       -0.30854907431038
C           -5.93162341522296       -0.50277516087088       -0.48298676920089
C           -7.30409152496589       -0.65989850823973       -0.59782800606956
C           -8.06691227037626        0.46595939414186       -0.83990874780090
C           -7.47043535952240        1.71443707263102       -0.98882412361030
C           -6.10948295081252        1.88152580371148       -0.83164402916457
C           -5.32407130183983        0.77477533945990       -0.52026237677579
C           -3.92355884174436        0.56207373086290       -0.27601851274544
C           -3.73110884071412       -0.84097805440443       -0.23725351877515
C           -2.44133124039291       -1.39457668935313       -0.26152968783038
C           -1.89583910189411       -2.70735634000488       -0.48931573252174
C           -2.42676889262335       -3.95900491300487       -0.79056896724619
C           -1.57124959137041       -5.01964481484333       -1.01111405444235
C           -0.18977858562703       -4.85842604085606       -0.97036292040663
C            0.36829995254977       -3.62034171777725       -0.72300999165610
C           -0.48846434633129       -2.55763385345963       -0.48021464232450
N           -0.16942294854137       -1.23089971438240       -0.27265318461791
C            1.10538029143540       -0.70511508042792       -0.53762832784440
C            1.26449166781559        0.24480037376537       -1.54348447545685
C            2.51665325232571        0.75538351043358       -1.82493672873603
C            3.64378987279733        0.32678546833286       -1.12770402791333
N            4.86542425309818        0.79261753507123       -1.36798812417921
C            5.93397559017510        0.38022501449372       -0.69909018712903
C            7.23572902799478        0.89282366177404       -0.98749142752591
C            7.37870671633312        1.85363320017873       -2.00250753458407
C            8.60989114207670        2.37031955948826       -2.31041235864884
C            9.73467487030159        1.93727207650899       -1.60756213905433
C            9.61307408189508        0.99855186320221       -0.61152416177018
C            8.36931038661896        0.44727947172440       -0.26908019657702
C            8.20605959742507       -0.54146480083660        0.77111026028916
C            9.27703646877454       -1.03588777980241        1.53046716989575
C            9.08868638776131       -1.97776839152528        2.51306118715372
C            7.81159849211104       -2.47086195912571        2.78246524086435
C            6.74190388582321       -2.01026146802863        2.06064665649139
C            6.91583692298417       -1.04776384193806        1.05191088609208
C            5.77345060926223       -0.59607480268725        0.32284529029427
N            4.56222776250259       -1.07612907804131        0.57264408439790
C            3.48125141591796       -0.67376923315281       -0.09140913772462
C            2.20806127745365       -1.16117543254699        0.17847395173232
C           -1.33590539694503       -0.51585365797180       -0.14657872452718
C           -1.51401657870339        0.85544412545561        0.09707165806368
C           -0.65314027267573        1.94674162665960        0.46524708692057
C            0.67818951783440        2.06227651708072        0.85810181709652
C            1.17261075215268        3.30413678495627        1.20069688247794
C            0.36054437572796        4.43459308577142        1.19467034235734
C           -0.97806669148659        4.34155814367210        0.86969715653245
C           -1.47307731006820        3.09840073128367        0.50704546045548
N           -2.77648922468555        2.74521868869654        0.21390246248563
C           -3.86114849135706        3.58944366078331        0.50919329363567
C           -4.00001489833240        4.80279603027009       -0.15610052962605
C           -5.05035970391810        5.64476632356254        0.16265049009359
C           -5.96222204148442        5.28323102220438        1.14042317968154
C           -5.82073557809608        4.07674447654186        1.80599877034031
C           -4.77124513941208        3.23163414435034        1.49896951155116
C           -2.82076304651330        1.38795958907191       -0.00938860472723
C           -6.05542812064046       -3.58926557556154       -0.72744710364541
C           -6.35315836536788       -4.87913737062385       -0.32586792660389
H           -6.07293431948239       -6.38647274342399        1.16697675474433
H           -4.62307670200621       -4.96921243736493        2.57336954865618
H           -4.09596614293272       -2.66269422176183        1.87103011798875
H           -7.76600057698863       -1.63073452269669       -0.50431294961680
H           -9.13802636506503        0.37104996093519       -0.93822830806008
H           -8.08404449409048        2.56987324618428       -1.22917862453087
H           -5.67056918237417        2.85392908594323       -0.97695972226574
H           -3.48789973587421       -4.11184968343147       -0.87646631323195
H           -1.98466733669376       -5.99180801402011       -1.23548796511003
H            0.45308382956487       -5.70576965786052       -1.15618691581972
H            1.43811138199031       -3.48031818588656       -0.73748101485843
H            0.40259043925760        0.58208578131545       -2.09743725411329
H            2.64856199728649        1.49392587897134       -2.59934576539873
H            6.49026000678715        2.16927937194924       -2.52811327660401
H            8.71232792272605        3.10843501359535       -3.09193503308648
H           10.70660925237114        2.34253703825931       -1.84808334183518
H           10.50240206731044        0.68576751071102       -0.08791863905131
H           10.27696229914288       -0.67576243885730        1.34785720089306
H            9.93401626362548       -2.33882796870076        3.08032563533515
H            7.67037523153954       -3.21117754528706        3.55583565430405
H            5.74221856371208       -2.37263877155695        2.24624963488193
H            2.08603899758999       -1.87791599507002        0.97531250367311
H            1.31702759925362        1.19903093020241        0.92713560482540
H            2.20742174813325        3.39741610881698        1.49502699665814
H            0.77576358691905        5.39153884994595        1.47349538590842
H           -1.62289492986729        5.20596262142942        0.91712940888684
H           -3.29548705356026        5.06923760238081       -0.93016306657248
H           -5.15990389193580        6.58394759552992       -0.35925889288362
H           -6.78236352534408        5.94182349648113        1.38332673201922
H           -6.52839460717836        3.79404470174019        2.57070966424329
H           -4.65060853920683        2.29188745955789        2.01632355928743
H           -6.42669855957368       -3.20667745751373       -1.66633254932817
H           -6.98103031305832       -5.50011251464925       -0.94761527751209
