  62
        -92.68150357
 C         -4.5825107544        0.8778299445       -2.5564748974
 C         -4.6664203630        1.0941381122       -1.0424988942
 C         -4.5774335812        2.5865421115       -0.7079382431
 C         -5.9240880930        0.4785835107       -0.4707338343
 C         -7.2385943355        0.7829355935       -0.7477501228
 C         -8.2417202283        0.0761503175       -0.0964319686
 C         -7.9312176397       -0.9193198151        0.8182793172
 C         -6.6132982580       -1.2320398911        1.1043940989
 C         -5.6087852083       -0.5283861609        0.4565587294
 C         -4.1674119313       -0.6306040605        0.5516057125
 C         -3.3554148972       -1.4594755941        1.3147717561
 C         -1.9859708133       -1.3463149573        1.1964516623
 C         -1.3970933935       -0.4031069937        0.3392888825
 C          0.0478874092       -0.2883023214        0.2453024704
 C          0.8424595595       -1.4484928868       -0.0093950311
 C          0.2629845675       -2.6907933255       -0.2883319878
 C          1.0355865717       -3.8384811067       -0.4287637283
 C          2.4062149275       -3.7647120620       -0.2864599314
 C          3.0134995479       -2.5292597576       -0.0882360340
 C          2.2655790583       -1.3494814986       -0.0166834913
 C          2.8885163097       -0.0654868770        0.0773033140
 C          4.3328275945        0.0473087580       -0.0058626769
 C          5.0434144730       -0.5340334003       -1.0691152781
 C          6.4102543813       -0.4225229877       -1.1571595245
 C          7.1236929288        0.2629000210       -0.1657000360
 C          8.5235122378        0.3706818124       -0.2462767303
 N          9.6677954570        0.4580095950       -0.3131778718
 C          6.4308440634        0.8396677414        0.9062376239
 C          5.0619166189        0.7400775657        0.9748066545
 C          2.0884101837        1.1074590852        0.2508970851
 C          2.6484340597        2.3891104621        0.2421385223
 C          1.8841526528        3.5191893217        0.5123746345
 C          0.5438076880        3.3828168736        0.8111160033
 C         -0.0526974856        2.1278356225        0.7578026386
 C          0.6757456112        0.9852259488        0.4093556164
 C         -2.2306453705        0.4353783497       -0.4213495564
 C         -3.5925634186        0.3134141015       -0.3180081362
 H         -3.6429334887        1.2668576329       -2.9421381893
 H         -5.4022468899        1.3881383620       -3.0565993165
 H         -4.6409038819       -0.1835396208       -2.7888329930
 H         -3.6339256048        2.9969758768       -1.0608470596
 H         -5.3918269121        3.1291903655       -1.1818004391
 H         -4.6418258802        2.7354120779        0.3681616989
 H         -7.4932437051        1.5556777397       -1.4585512735
 H         -9.2764436818        0.3043791781       -0.3053438448
 H         -8.7280776508       -1.4553665615        1.3126341246
 H         -6.3728361264       -2.0065918203        1.8173652428
 H         -3.7862596071       -2.1772828249        1.9968533772
 H         -1.3422806982       -1.9615317821        1.8085636642
 H         -0.8074857830       -2.7615867328       -0.4039556708
 H          0.5549321682       -4.7836845296       -0.6311332875
 H          3.0139432366       -4.6548790774       -0.3444957558
 H          4.0863693027       -2.4864248912        0.0186287924
 H          4.4953207317       -1.0395320464       -1.8507421191
 H          6.9439093238       -0.8556369154       -1.9906655063
 H          6.9829451255        1.3566733290        1.6775766480
 H          4.5352247976        1.1623899330        1.8180892516
 H          3.6960928368        2.5101878978        0.0141264515
 H          2.3494560357        4.4931201984        0.5029416380
 H         -0.0512016368        4.2457465765        1.0699083854
 H         -1.1005700041        2.0354076896        0.9977079831
 H         -1.7842112412        1.1373540711       -1.1106684578
