  62
        -92.74787601
 C         -4.5645714971        0.1070431255       -2.7107524228
 C         -4.6533932822        0.7523237175       -1.3245415494
 C         -4.5590832391        2.2773185194       -1.4359895547
 C         -5.9161865218        0.3336558449       -0.6051193637
 C         -7.2284735923        0.5458655474       -0.9680836985
 C         -8.2374204401        0.0641309634       -0.1443451847
 C         -7.9350671272       -0.6178262375        1.0239961695
 C         -6.6185196616       -0.8345909804        1.3970275541
 C         -5.6100536237       -0.3561949029        0.5771046271
 C         -4.1638641489       -0.4312647987        0.7047420160
 C         -3.3638506454       -0.9980919445        1.6832006646
 C         -1.9886199615       -0.9202492998        1.5469439573
 C         -1.4082103501       -0.2824510939        0.4528571629
 C          0.0617037383       -0.2027878858        0.3311956589
 C          0.8083990337       -1.3666793883        0.0975159347
 C          0.1862277592       -2.6327420423       -0.0626238239
 C          0.9206579367       -3.7597704071       -0.2672153044
 C          2.3270396579       -3.6914601877       -0.3187774927
 C          2.9614584170       -2.4943369926       -0.1928934588
 C          2.2322724754       -1.2905971444       -0.0041998076
 C          2.8707971363       -0.0467626407        0.1009359138
 C          4.3411864419        0.0342787702       -0.0157128554
 C          4.9661409876       -0.2023038046       -1.2393207583
 C          6.3389932665       -0.1303162213       -1.3543462417
 C          7.1117748051        0.1781815920       -0.2332259472
 C          8.5178482997        0.2466396383       -0.3444059318
 N          9.6601421076        0.3108562691       -0.4349073276
 C          6.4947392114        0.4160562548        0.9966673178
 C          5.1205956352        0.3453407549        1.0972347049
 C          2.1245489484        1.1206083313        0.3150485438
 C          2.7380979173        2.3991316270        0.3871939787
 C          2.0043330675        3.5223371882        0.6141796580
 C          0.6090075484        3.4362112790        0.7903998666
 C         -0.0201951902        2.2325523050        0.7073692478
 C          0.7033237208        1.0392236359        0.4456725237
 C         -2.2187698509        0.2883636639       -0.5295893922
 C         -3.5863007921        0.2105767460       -0.4006612385
 H         -4.6384402395       -0.9753088184       -2.6265697174
 H         -3.6167290625        0.3551196748       -3.1830717991
 H         -5.3735260746        0.4618331344       -3.3451804997
 H         -4.6236598834        2.7307018641       -0.4488480916
 H         -3.6134745135        2.5650580273       -1.8900615630
 H         -5.3712806602        2.6627311898       -2.0479421932
 H         -7.4760170980        1.0753109876       -1.8767638454
 H         -9.2703424158        0.2231851765       -0.4171773704
 H         -8.7359528954       -0.9834749968        1.6500956161
 H         -6.3851616781       -1.3666058472        2.3073139971
 H         -3.8007418765       -1.4910811564        2.5388738515
 H         -1.3458856617       -1.3504739078        2.3019254812
 H         -0.8913287020       -2.6845764494       -0.0215456506
 H          0.4325469317       -4.7155428504       -0.3873954350
 H          2.8966322783       -4.5978198800       -0.4616507785
 H          4.0397028527       -2.4457585925       -0.2338333255
 H          4.3628418108       -0.4397496761       -2.1036645809
 H          6.8227708774       -0.3108232841       -2.3033421246
 H          7.0986732064        0.6532615656        1.8605042294
 H          4.6379120753        0.5233324504        2.0468144310
 H          3.8077410718        2.4682686096        0.2533177374
 H          2.4861488590        4.4876106674        0.6641805447
 H          0.0440775227        4.3352911770        0.9871842598
 H         -1.0894076243        2.1667172503        0.8425892001
 H         -1.7608957812        0.7766208338       -1.3781609923
