62
 energy: -92.720421105567 gnorm: 0.000065148412 xtb: 6.7.1 (edcfbbe)
C           -4.53721630863044        0.58495270007765       -2.66646022065132
C           -4.64422373564674        0.97184777281461       -1.18695654242447
C           -4.55568644747288        2.49315024912233       -1.02518818024979
C           -5.91347792131394        0.42485827944260       -0.57136414342466
C           -7.22319274652111        0.70568356296906       -0.89504772277771
C           -8.23954750097983        0.07593654520715       -0.18708358086418
C           -7.94718730732048       -0.82186967385830        0.82955241071059
C           -6.63445451861870       -1.11151654962881        1.16222438370437
C           -5.61687343393005       -0.48402619716619        0.45822492758215
C           -4.17662992308976       -0.58281081171952        0.58329586819796
C           -3.38045575125776       -1.33812776937311        1.43460885069901
C           -2.00795411236989       -1.24391948770733        1.32583288566226
C           -1.40272970259155       -0.38667752859177        0.39404102225822
C            0.04641254515612       -0.28649065567797        0.30575257368238
C            0.83704647717095       -1.46274736147420        0.12615323046258
C            0.25364142124740       -2.72196009518113       -0.05530800811756
C            1.02419672837960       -3.87719275929013       -0.13045119647973
C            2.39801569840424       -3.79440990441336       -0.02367108784672
C            3.00772093819759       -2.54818404259003        0.08014321908011
C            2.26051877209541       -1.36557487137353        0.09168896531970
C            2.88733589295175       -0.07897845445424        0.10288318214438
C            4.33037371919792        0.02356148271781       -0.01866225752370
C            5.01028003205992       -0.60435538371419       -1.07650801986804
C            6.37409583821300       -0.50115636609613       -1.20821099903777
C            7.11850059532549        0.22152876112302       -0.26486490538903
C            8.51368803285616        0.32318738056156       -0.38966974292644
N            9.65731227084031        0.40679003917933       -0.49200784134562
C            6.45608576852252        0.84249147002021        0.80357097311380
C            5.08917908493358        0.75188747723423        0.91339508733976
C            2.09130026399105        1.10368918081096        0.22672742493604
C            2.65316056417661        2.38303595771241        0.15452905762582
C            1.89068637465827        3.52703460740877        0.36747504937123
C            0.54811613797928        3.40904188917949        0.66617393984172
C           -0.05004688812328        2.15364968699961        0.67643027295845
C            0.67824713079304        0.99238022750031        0.39393756505921
C           -2.21978605158759        0.38038902470657       -0.45420251597823
C           -3.58466222083835        0.27093074542868       -0.36499835217123
H           -4.59561683895278       -0.49597332927143       -2.77952078583324
H           -3.59053661879239        0.92710330540953       -3.07788170039642
H           -5.34760625104798        1.03719002913961       -3.23315985418263
H           -4.63884518022011        2.76682562808374        0.02501891681411
H           -3.60500531088559        2.85787513507068       -1.40718534416860
H           -5.35967640570135        2.97751621776241       -1.57409735747638
H           -7.46507531414100        1.40204441389692       -1.68492434290366
H           -9.27077420669690        0.28736798519704       -0.43135459687262
H           -8.75391340158949       -1.29970846945214        1.36699234635768
H           -6.40914296766840       -1.81038545852041        1.95442814139787
H           -3.82477081339982       -1.98606416724340        2.17581082517150
H           -1.37743751530366       -1.80535408617487        2.00042031384425
H           -0.81893009645719       -2.80101206946731       -0.14272601090545
H            0.54028052878631       -4.83438902965758       -0.25662597642260
H            3.00572017311511       -4.68692798885674       -0.03518979328307
H            4.08275577416230       -2.49946263262932        0.16053641775452
H            4.44014110844949       -1.14187223196009       -1.82009541327746
H            6.88296609056025       -0.96969962206357       -2.03846330571502
H            7.03162632449421        1.38648032978234        1.53895380852674
H            4.58897767784910        1.21114175653585        1.75347596988763
H            3.70134994078351        2.49184964917017       -0.07757302902483
H            2.35893518101197        4.49851858344830        0.31153295055645
H           -0.04644385654099        4.28560132235850        0.87717487097693
H           -1.09953864030516        2.07483816879556        0.91397016826908
H           -1.75832457524146        1.01685907014115       -1.19513847822333
