62
 energy: -92.786577292759 gnorm: 0.000025994306 xtb: 6.7.1 (edcfbbe)
C           -4.15236147668513       -1.26014328961279       -2.15484217431244
C           -4.21354426835544       -0.00091033591608       -1.28318098843872
C           -4.15226829422677        1.25720608794601       -2.15645159770227
C           -5.44749400858446       -0.00027030283137       -0.40744409632644
C           -6.77431695726284       -0.00044249387172       -0.78173631296677
C           -7.75022915195306        0.00034888270832        0.20667039813275
C           -7.40127477062820        0.00126585058158        1.54857644297129
C           -6.07013012531446        0.00144060278736        1.93403930129483
C           -5.09457302161780        0.00067107297853        0.95037434987750
C           -3.64336166056674        0.00068861330178        1.04878623372864
C           -2.80625535780064        0.00147801727126        2.15271309812393
C           -1.43647609999702        0.00133455957771        1.94983683528996
C           -0.90114443834083        0.00041985008954        0.66463524094457
C            0.56883667978058        0.00028457825540        0.47592846077674
C            1.25940224595046       -1.21538116368780        0.38994299369616
C            0.58498434084472       -2.46267067928522        0.46740724901114
C            1.26620245708396       -3.63799098303419        0.38517433033335
C            2.66683235325349       -3.63899595160454        0.22005332175335
C            3.35097229419798       -2.46515731599996        0.13989089443112
C            2.67902680187353       -1.21642654530438        0.21939244242333
C            3.36826775201500        0.00001645891296        0.13708703238054
C            4.83910499857386       -0.00010400827578       -0.04055265704077
C            5.39190080605612       -0.00093648936849       -1.31948125202550
C            6.76108627107493       -0.00101062798037       -1.49345144403256
C            7.59976195934965       -0.00023470633635       -0.37654210155926
C            9.00111696387052       -0.00025893323932       -0.54580862566622
N           10.14131364664270       -0.00029758352008       -0.68182254090134
C            7.05308961048216        0.00058949261380        0.90881377892354
C            5.68220250218171        0.00065038857928        1.06857037305578
C            2.67915721347780        1.21659060164977        0.21854193047583
C            3.35122833428328        2.46519396788148        0.13809099269893
C            2.66721071830799        3.63916165034939        0.21740179734517
C            1.26658104917393        3.63842306863453        0.38252477414429
C            0.58524221724445        2.46323231580722        0.46561838819357
C            1.25953396503026        1.21581712446841        0.38910232013178
C           -1.74682435577958       -0.00037611356218       -0.44432218574657
C           -3.10993480627268       -0.00023413545995       -0.24874286585418
H           -4.19952324817038       -2.15225853033771       -1.53304300358179
H           -3.22518144206378       -1.28085653551024       -2.72284619433214
H           -4.98802796176392       -1.27778193844283       -2.85045036293484
H           -4.19929752386968        2.15010667969844       -1.53577350818554
H           -3.22511204548791        1.27709614493247       -2.72452284362484
H           -4.98796681438275        1.27405622364576       -2.85204017870499
H           -7.05884441212487       -0.00115611076623       -1.82415639131550
H           -8.79410653848226        0.00023768060772       -0.07315094073389
H           -8.17676520360576        0.00186150563683        2.30146081772131
H           -5.80135153593960        0.00215973182668        2.98040758802514
H           -3.20956883695033        0.00219720733811        3.15471467938440
H           -0.76425395682028        0.00194983251269        2.79646599024111
H           -0.48785615272669       -2.45774189813642        0.59384372850535
H            0.74062041888370       -4.57996905766564        0.44515499233932
H            3.19118054073108       -4.58164579385992        0.15830197336705
H            4.42405674673579       -2.46674196090110        0.01354487149695
H            4.73775481026106       -0.00152090023833       -2.17894505711787
H            7.19085962823428       -0.00164660799892       -2.48459044451123
H            7.70825369155052        0.00118360476006        1.76778388829187
H            5.25365229376559        0.00128874331879        2.06000861786304
H            4.42430523165511        2.46658005712113        0.01167897843000
H            3.19165454686438        4.58171152800354        0.15494018288633
H            0.74110125652871        4.58049827302629        0.44186206339368
H           -0.48759772487314        2.45850485995263        0.59206322462382
H           -1.32085015532123       -0.00108526403974       -1.43750780909735
