  99
       -139.81843541
 C         -3.0315517249       -2.7360018866        2.4939634846
 C         -1.6965497721       -2.1580273394        2.1383524921
 C         -0.7403800980       -2.8976171060        1.4595837951
 C          0.4706000541       -2.3441895517        1.0799460342
 C          1.4731560867       -3.2083088268        0.3742752695
 C          0.7486308066       -0.9909127790        1.3478295003
 B          2.0022186221       -0.3093293890        0.7060994668
 C          1.8361115167        1.0652890659       -0.0587760557
 C          2.9261267930        1.9435634759       -0.0314223611
 C          2.8664035764        3.2337136219       -0.5219410928
 C          1.6781193851        3.6816503167       -1.0814621417
 C          1.5392269638        5.0722400859       -1.6220982239
 F          2.6460208636        5.8162824077       -1.4891551839
 F          0.5492286438        5.7569290254       -1.0113228762
 F          1.2316383608        5.0844824499       -2.9354698580
 C          0.5802220776        2.8395627229       -1.1554404187
 C          0.6483301175        1.5439325212       -0.6506125174
 N         -0.5177082470        0.7771277953       -0.7227098693
 C         -1.7293195251        1.1488635347       -0.1699794286
 C         -2.0927696896        2.3073539467        0.4980750588
 C         -3.3725983596        2.3865537177        1.0101719057
 C         -4.3099428416        1.3539092500        0.8781604862
 C         -5.6851345373        1.5269238443        1.5054277241
 C         -6.5963621040        0.3198153583        1.2666709470
 C         -5.5205304369        1.7063496630        3.0215042490
 C         -6.3683377773        2.7638377476        0.9064293313
 C         -3.9409210385        0.2091261578        0.1920140493
 C         -2.6591359546        0.1014921524       -0.3287010906
 C         -1.9832800057       -0.9361805139       -1.0545211624
 C         -2.3870984709       -2.1753017575       -1.5299272729
 C         -1.5030547407       -2.9508325382       -2.2609619378
 C         -1.8651573066       -4.3317323562       -2.7862962929
 C         -3.2883708019       -4.7486880317       -2.4065233841
 C         -0.8944273854       -5.3600277155       -2.1891126667
 C         -1.7569664207       -4.3437167853       -4.3172791374
 C         -0.2287779511       -2.4376658028       -2.5326024414
 C          0.2011731117       -1.2138986445       -2.0602672631
 C         -0.6713790044       -0.4743202632       -1.2815596516
 C          3.4566922858       -0.8718923372        0.8903075249
 C          4.3294359683       -1.1146093408       -0.1819920189
 C          3.8901563180       -0.9403006815       -1.6065590856
 C          5.6180638939       -1.5799223343        0.0418309465
 C          6.0964778918       -1.8056718706        1.3207029437
 C          7.4930225985       -2.2894090712        1.5621379081
 C          5.2418739570       -1.5548793850        2.3861062104
 C          3.9477510804       -1.1059730119        2.1898298951
 C          3.0934772968       -0.8312756023        3.3925529035
 C         -0.1774861102       -0.2788749009        2.1274204801
 C          0.1293780256        1.0897046766        2.6644140908
 C         -1.3774690870       -0.8598232505        2.5026592639
 H         -3.1698694483       -3.7121424411        2.0354379221
 H         -3.1279240513       -2.8447884826        3.5743510902
 H         -3.8233824636       -2.0704934510        2.1538223037
 H         -0.9501125730       -3.9281495049        1.2096924761
 H          2.4040359187       -3.2391776102        0.9360206953
 H          1.6887427016       -2.8142527139       -0.6129724632
 H          1.0951991597       -4.2220415665        0.2668439929
 H          3.8478714815        1.5975617963        0.4102471669
 H          3.7240578712        3.8853617317       -0.4706663397
 H         -0.3363826949        3.1877236838       -1.6056519026
 H         -1.4018222795        3.1271175085        0.6268638395
 H         -3.6492502821        3.2875893299        1.5353960899
 H         -6.7571406524        0.1561579932        0.2038189281
 H         -6.1763918146       -0.5811391589        1.7077319091
 H         -7.5644656984        0.4992282478        1.7296754994
 H         -4.9320760730        2.5894737543        3.2530948999
 H         -6.4938307127        1.8109828315        3.4959612060
 H         -5.0195245958        0.8402496025        3.4493584109
 H         -5.7943981777        3.6657844978        1.0976407386
 H         -6.4737157112        2.6489857006       -0.1703035526
 H         -7.3582471355        2.8923777316        1.3389487823
 H         -4.6245131202       -0.6107839015        0.0536129430
 H         -3.3899476691       -2.5064268223       -1.3230214203
 H         -3.4885470967       -5.7477009297       -2.7882628871
 H         -4.0217275300       -4.0713922710       -2.8372595944
 H         -3.4123335901       -4.7694752787       -1.3265649270
 H         -1.1360887468       -6.3586003716       -2.5468361002
 H          0.1330616526       -5.1386634378       -2.4621185536
 H         -0.9682601380       -5.3542214323       -1.1040114025
 H         -0.7440862244       -4.1279340167       -4.6449440081
 H         -2.4207441479       -3.5957667362       -4.7461227283
 H         -2.0393312889       -5.3199066634       -4.7057835431
 H          0.4541926796       -3.0151477131       -3.1369430750
 H          1.1847746192       -0.8439880996       -2.2988575294
 H          3.3989521198       -1.8487472308       -1.9572159832
 H          3.1954836103       -0.1127757523       -1.7013737804
 H          4.7475984403       -0.7578926674       -2.2511615937
 H          6.2630693626       -1.7673537979       -0.8054952955
 H          7.4923146458       -3.1293419610        2.2547976508
 H          8.0942038933       -1.4947903886        2.0044131564
 H          7.9642632923       -2.6000610300        0.6330551672
 H          5.5989527460       -1.7171303780        3.3937172559
 H          2.8616242471        0.2301301557        3.4570032791
 H          2.1545433543       -1.3729473587        3.3238355458
 H          3.6075608398       -1.1271376911        4.3039353880
 H         -0.7513328285        1.7243462225        2.6073343887
 H          0.9488448066        1.5596827183        2.1318528214
 H          0.4101581633        1.0073427991        3.7159518206
 H         -2.0864911357       -0.2796253733        3.0760449140
