99
 energy: -139.857139469202 gnorm: 0.000112436059 xtb: 6.7.1 (edcfbbe)
C           -8.01889400493216        0.11056280307801        1.59225644049394
C           -6.58100236127772        0.24809477898586        1.19412040016037
C           -5.72743764495097        1.08443014410741        1.90277656635324
C           -4.39137618843858        1.21682371986019        1.56719734215477
C           -3.54652933653679        2.16346387681368        2.36951984724481
C           -3.85077468402612        0.51162947669387        0.47090400087756
B           -2.34362306287521        0.72703968748166        0.08157393016018
C           -2.02108163259546        1.20094142025225       -1.39521507227054
C           -3.01958994065816        1.91058744153409       -2.07491104472596
C           -2.83381856430480        2.46363613020563       -3.32715744646032
C           -1.60748906135144        2.29620806093389       -3.95569557370521
C           -1.33854819340295        2.86721163193076       -5.31312694603789
F           -0.34106127180642        3.78089219681062       -5.30082723117811
F           -2.39517784278576        3.48637836838704       -5.86296628205521
F           -0.95132701283294        1.93092211944447       -6.20674048314719
C           -0.59185206040783        1.59164847000640       -3.32829031461825
C           -0.78334314032611        1.05543109451929       -2.05678098168053
N            0.31880995932455        0.41606575502358       -1.47451754238136
C            0.40963443964147       -0.88564346595829       -1.02112344815485
C           -0.50498623458029       -1.92145388126508       -1.09442522496002
C           -0.13023744986678       -3.15686271504942       -0.60686966504337
C            1.13171468800563       -3.40500905728355       -0.05196998873690
C            1.44424340150776       -4.80132840267776        0.46946626403167
C            1.31542656297371       -5.81275487371337       -0.67953705658313
C            2.86058980510740       -4.91342937188280        1.04218757468343
C            0.45054025660636       -5.15501455625787        1.58563192362651
C            2.05246533415189       -2.37074299213589       -0.02111400203696
C            1.70332655727041       -1.12029726330374       -0.51336442128576
C            2.43874855621455        0.10105635684156       -0.68992890844729
C            3.74603911351344        0.47015219491938       -0.40018099776158
C            4.19153353909407        1.74249568363973       -0.71999740116877
C            5.61484946375099        2.21102167845672       -0.44696609080315
C            6.26987273882896        2.63261036878350       -1.77111708228037
C            6.48593725550684        1.11854560705021        0.18122244739549
C            5.57782864780626        3.40617992961686        0.51722746594647
C            3.29136335819253        2.63098350600114       -1.32370440107736
C            1.98686462388688        2.29105137165996       -1.62151707266420
C            1.55753746971217        1.01080483844182       -1.30803277895563
C           -1.18342484746938        0.57396732077060        1.12197335859519
C           -1.04996770215193       -0.62050400121999        1.85539308246482
C           -2.10761862169347       -1.68450604651938        1.80951652681184
C            0.05985465453361       -0.82916454786825        2.65729296213181
C            1.05367326719852        0.12817949545388        2.79281790266333
C            2.25524787261753       -0.10644480134478        3.65649833985137
C            0.88320718292758        1.33603152831545        2.13525934683669
C           -0.21205797059278        1.57015549744815        1.31861557788340
C           -0.36595566545790        2.95270057398299        0.75150181060498
C           -4.72108202013407       -0.32458193629149       -0.24828433963131
C           -4.25556765846836       -1.16808781533605       -1.40071203076109
C           -6.05460609120995       -0.44949513669307        0.12194948653953
H           -8.48615653409265        1.09032834187881        1.68329188953741
H           -8.57186816260635       -0.47535272526415        0.86190955786011
H           -8.09474447659919       -0.38410126964471        2.56098503318384
H           -6.12072457799203        1.64555266612223        2.73987848637016
H           -4.13315740741328        2.62061146892227        3.16347692246846
H           -3.15006997546842        2.95303182533761        1.73475730337466
H           -2.70375925387585        1.64122584771875        2.81624723805210
H           -3.97479943095115        2.03913295856573       -1.58900731388004
H           -3.62548101186476        3.01209410143010       -3.81305967786550
H            0.35662890181311        1.45462601092491       -3.82711108648336
H           -1.47884763938947       -1.77444629530615       -1.53227866801088
H           -0.84804542893805       -3.96080990754023       -0.66739596162585
H            0.30564672462738       -5.83351441214509       -1.08001311225909
H            1.99661811627865       -5.55266032880284       -1.48762772613172
H            1.56238016826567       -6.81278472913081       -0.32826038220625
H            3.00330642375394       -4.22382697401611        1.87092257040978
H            3.02312016405481       -5.92375759267436        1.41326153045139
H            3.60865253028618       -4.71283597019265        0.27841837696541
H            0.53283727368247       -4.43761169446963        2.39946327656573
H           -0.57347447925693       -5.14452750481871        1.22286969236985
H            0.66309866737741       -6.14761944115215        1.97813848540692
H            3.04738775005026       -2.51226462144864        0.36658668752363
H            4.39269730452739       -0.25185248906032        0.06985088241795
H            7.29708260784421        2.94753002799750       -1.59780232005528
H            5.73627621254091        3.45731872067751       -2.23553554218321
H            6.27803772486978        1.79716861144990       -2.46878928710949
H            7.49091973259587        1.50453492910335        0.34147799964312
H            6.09055885031629        0.80518069529043        1.14458893989943
H            6.55894073799913        0.25297381902891       -0.47352182732547
H            5.11414394565183        3.11633037594597        1.45822633357460
H            5.01215989432141        4.23475449424580        0.09965151581115
H            6.58832248436425        3.75354800454525        0.72350340482038
H            3.61911583807947        3.62845473361358       -1.57554997952164
H            1.32957845809383        3.00962639643948       -2.08953503859524
H           -2.98340517476321       -1.35840151289864        2.37063645668983
H           -2.42013697115407       -1.88933943058243        0.79187405773898
H           -1.73863696761849       -2.60570902285506        2.25393152582233
H            0.15263567610698       -1.76489456151237        3.19145994592421
H            2.32937546582289       -1.15163925708410        3.94682821897958
H            2.19312874730571        0.49839856162587        4.56205628086309
H            3.16283515365754        0.17919275128204        3.12800971359752
H            1.62043247018671        2.11747370994958        2.25973166694706
H           -1.12068428968620        2.99254095507226       -0.02782712754682
H           -0.66403817905979        3.63515583573895        1.54907727570459
H            0.58197113468313        3.30872414156435        0.35277585385549
H           -4.02312357430486       -2.17578969604893       -1.05195237391011
H           -3.37106368388362       -0.75141698736143       -1.87115123815102
H           -5.04129778205699       -1.25376838684461       -2.14943260640377
H           -6.69525564135911       -1.10916543561224       -0.44786362236446
