  99
       -139.73666552
 C         -2.8882609286       -2.8016420690        2.3501041626
 C         -1.5695210029       -2.1696380708        2.0390137046
 C         -0.5581245709       -2.8758770984        1.3918626300
 C          0.6455314210       -2.2815268126        1.0753385908
 C          1.7108760677       -3.0836399499        0.3989877056
 C          0.8606552452       -0.9090541564        1.3487136638
 B          2.0567517262       -0.1264055102        0.7107791793
 C          1.8347972377        1.1610843013       -0.0598586731
 C          2.8840197417        2.1132383960       -0.2247977919
 C          2.6907555169        3.3765320849       -0.6946379066
 C          1.3936963512        3.7915603130       -1.0762245252
 C          1.1523913409        5.1435303654       -1.6278773223
 F          2.0552965515        6.0598391522       -1.2351244351
 F         -0.0593937491        5.6436324703       -1.2914734950
 F          1.1721403412        5.1885823020       -2.9926370033
 C          0.3440733494        2.8760226076       -1.0163148947
 C          0.5430541855        1.5901821677       -0.5596364420
 N         -0.5567452053        0.7318453353       -0.5666965535
 C         -1.7943210789        1.0123847538       -0.0370541548
 C         -2.2383031178        2.1274256317        0.6622749470
 C         -3.5341046593        2.1212964572        1.1366182263
 C         -4.4128688288        1.0479544010        0.9343871119
 C         -5.8119206784        1.1232468188        1.5217804801
 C         -6.6537639055       -0.1148905396        1.2008927818
 C         -5.7013833726        1.2437446040        3.0489623895
 C         -6.5360443231        2.3522973746        0.9544018086
 C         -3.9657699068       -0.0528259223        0.2124908865
 C         -2.6679420077       -0.0761920263       -0.2650561770
 C         -1.9150871757       -1.0450792850       -1.0182751362
 C         -2.2331560746       -2.2771396314       -1.5614903063
 C         -1.2808023730       -2.9660374147       -2.3025170040
 C         -1.5505019326       -4.3354521221       -2.9038540394
 C         -2.9568431338       -4.8509650381       -2.5872592844
 C         -0.5363969867       -5.3367161298       -2.3327275561
 C         -1.4013152180       -4.2589657375       -4.4297982376
 C         -0.0308094122       -2.3706753689       -2.5101886185
 C          0.3122436746       -1.1454410701       -1.9748011177
 C         -0.6282103082       -0.4936564451       -1.1936875247
 C          3.5381437974       -0.6595286533        0.9194693538
 C          4.4241314730       -0.8611928440       -0.1476022482
 C          4.0234896539       -0.6613159243       -1.5817324660
 C          5.7134755236       -1.3213491418        0.0910392251
 C          6.1654797295       -1.5979509603        1.3694710277
 C          7.5637126236       -2.0778800802        1.6171833506
 C          5.2859122701       -1.3995397433        2.4244692685
 C          3.9946576652       -0.9426943908        2.2171040449
 C          3.1148770803       -0.7135828071        3.4091137956
 C         -0.1094700186       -0.2432703481        2.1362699319
 C          0.1347932400        1.1254997950        2.6954508781
 C         -1.3061962215       -0.8652301751        2.4386976079
 H         -3.0388226931       -3.7026143951        1.7600434880
 H         -2.9440869800       -3.0715423047        3.4056033370
 H         -3.6938682652       -2.0991307355        2.1431083712
 H         -0.7285942075       -3.9088492711        1.1219981876
 H          2.5823498367       -3.1729148618        1.0449010128
 H          2.0278077745       -2.5829977648       -0.5101501107
 H          1.3509696441       -4.0796151077        0.1526066929
 H          3.8728213282        1.8128026216        0.0852940600
 H          3.5097383417        4.0744650553       -0.7714910875
 H         -0.6285746822        3.1623966178       -1.3870655630
 H         -1.5920744589        2.9729348228        0.8352724611
 H         -3.8746948215        2.9841923057        1.6864206713
 H         -6.7757534595       -0.2373075752        0.1272874873
 H         -6.2045208364       -1.0146007554        1.6153248362
 H         -7.6425798250       -0.0033660194        1.6402230014
 H         -5.1596316826        2.1400675438        3.3370066453
 H         -6.6929216930        1.2868926091        3.4937457229
 H         -5.1777192729        0.3816234038        3.4578227614
 H         -6.0209058654        3.2725497798        1.2135514305
 H         -6.5929547031        2.2870462988       -0.1301341866
 H         -7.5474357187        2.4057423555        1.3508344306
 H         -4.6072210090       -0.8947603386        0.0180491187
 H         -3.2185754065       -2.6786812073       -1.4015346030
 H         -3.0889460717       -5.8371158821       -3.0270955321
 H         -3.7171080970       -4.1941605783       -3.0030250619
 H         -3.1077325827       -4.9392175844       -1.5139986300
 H         -0.7119815891       -6.3266434248       -2.7477352996
 H          0.4829858822       -5.0443793777       -2.5660013890
 H         -0.6369434464       -5.3936116176       -1.2511534061
 H         -0.3940417408       -3.9712495001       -4.7161945795
 H         -2.0944374552       -3.5269973217       -4.8388789904
 H         -1.6183856242       -5.2268924512       -4.8758356774
 H          0.7013110908       -2.8829552945       -3.1141128242
 H          1.2768872435       -0.7061320447       -2.1599389656
 H          4.8858193597       -0.3785820911       -2.1820144301
 H          3.6273566869       -1.5925401163       -1.9908170650
 H          3.2680278434        0.1101979654       -1.6687629756
 H          6.3744586538       -1.4794307395       -0.7502192835
 H          8.1875837880       -1.2519060101        1.9605784878
 H          8.0031988102       -2.4802905096        0.7076812973
 H          7.5764989439       -2.8477303748        2.3863096173
 H          5.6212650707       -1.5946458854        3.4338940692
 H          2.8801002809        0.3454376641        3.4983397365
 H          2.1787336357       -1.2544937882        3.2972060533
 H          3.6059407007       -1.0395049634        4.3230970355
 H         -0.7977621114        1.6788700527        2.7678132792
 H          0.8447936658        1.6796487765        2.0919121292
 H          0.5444044561        1.0358044962        3.7028305727
 H         -2.0592461230       -0.3227702943        2.9930057312
