99
 energy: -139.857240055521 gnorm: 0.000030432928 xtb: 6.7.1 (edcfbbe)
C           -2.74406379381530       -3.02300826941481        2.86450523358663
C           -1.50876364073815       -2.32945162603562        2.37614569584312
C           -0.56744782770044       -3.00997414470941        1.61487273679662
C            0.58419867226599       -2.39446228124232        1.15806455875752
C            1.57961106689567       -3.21573359807095        0.39153138843519
C            0.81956634488158       -1.03187068404861        1.42990271922103
B            2.04570509925174       -0.30547322981000        0.77990264069832
C            1.83754121448815        1.06481785387408        0.01349738786067
C            2.90483579400793        1.97215747174855        0.01724566054907
C            2.81932294015712        3.24012512463314       -0.52450337124198
C            1.62833580494540        3.63313847223987       -1.11961969397917
C            1.46912793211398        4.98908652903899       -1.73349202112733
F            2.56948311829028        5.75434755431145       -1.65793209371957
F            0.47998972225882        5.70639488192814       -1.15405605965717
F            1.14656620777874        4.93316445458856       -3.04459973921586
C            0.54760738959154        2.76578535143636       -1.15893913731861
C            0.63833684741641        1.49701482487727       -0.59106115417642
N           -0.52126151169757        0.71131375867794       -0.62060491901892
C           -1.74197999056541        1.11316373347099       -0.10688484153068
C           -2.10103735376294        2.28722041039819        0.53668584347873
C           -3.40437936710531        2.41718945390186        0.97315890596602
C           -4.36996527108340        1.41662662894726        0.79804336544673
C           -5.78350411930729        1.66118542188660        1.30976562671472
C           -6.72004323799618        0.47942330028385        1.03932368283861
C           -5.74148354056021        1.89731306954298        2.82699798487779
C           -6.36521829568720        2.89822346437925        0.60870398107819
C           -3.99667588778396        0.24593583015090        0.15799527858572
C           -2.69282918396521        0.08995384074021       -0.29448667937571
C           -2.01994164893337       -0.96502525254436       -1.00034745068501
C           -2.44855476301820       -2.18117742774709       -1.51534105178214
C           -1.57157256284552       -2.97012090577099       -2.24138274601129
C           -1.97182551402179       -4.31370030032000       -2.83629995417573
C           -3.42186463642287       -4.69129747360020       -2.51769769117178
C           -1.05877397554450       -5.40848310190098       -2.26508450216665
C           -1.82112011056575       -4.25695100614670       -4.36401103326617
C           -0.27045678935673       -2.49706395340411       -2.45409456394525
C            0.18243427478966       -1.29567890017482       -1.94787966069586
C           -0.69087163523053       -0.53572658841977       -1.18975886911039
C            3.51365147362522       -0.84330946485683        0.94295544780491
C            4.38549884676434       -1.04536476549947       -0.14015634871042
C            3.95573274270439       -0.84401394209635       -1.56515085238403
C            5.68150196057295       -1.50246212468896        0.06563415039483
C            6.16990268272451       -1.75986852062908        1.33407832282686
C            7.57446930678765       -2.23251829451647        1.55478278834920
C            5.31737069956735       -1.54673381257019        2.40984145975287
C            4.01670280061182       -1.10772875290476        2.23446043545248
C            3.17300980060447       -0.87955826580075        3.45497627699700
C           -0.10247485907164       -0.36452165434516        2.25138823083177
C            0.14648767116372        1.02537505559011        2.76422966262741
C           -1.24330282975201       -1.01197959188201        2.70507639934081
H           -3.19233949407274       -3.61519139794316        2.06908289138206
H           -2.49577787437891       -3.69968316984346        3.68347196314261
H           -3.47596327149435       -2.30444555931622        3.22554798614170
H           -0.73925703986831       -4.05068965679387        1.37595983430080
H            2.45384822458626       -3.41178385379294        1.01211639901049
H            1.91238907639858       -2.69929839395371       -0.50181762156053
H            1.14319401665804       -4.16856452151430        0.10182940446928
H            3.83245575088234        1.66696122421602        0.47700471320165
H            3.66099679274742        3.91401854457344       -0.49167748433471
H           -0.37325471958673        3.07324786738466       -1.63300607530366
H           -1.39077435110707        3.08631702342061        0.69323239188139
H           -3.67781566657074        3.33688382521951        1.46843315077909
H           -6.81252873567242        0.29048059373279       -0.02783987593689
H           -6.36514136433943       -0.42263086253005        1.53251451114204
H           -7.71128190539379        0.70660750370277        1.42729307471161
H           -5.13220555956878        2.76122471119415        3.07846589136160
H           -6.74659403906822        2.06795567958138        3.20771858183327
H           -5.32537140313625        1.02770196488537        3.33175649644968
H           -5.78193287893685        3.78925836285746        0.82474062872151
H           -6.37312879325158        2.75026459412573       -0.46964257030373
H           -7.38690768035050        3.07199374757630        0.94080726675392
H           -4.69618389032740       -0.55758791198231       -0.00065162371967
H           -3.47016680770790       -2.47943059054995       -1.34906976077213
H           -3.64838879026947       -5.66230903189448       -2.95439389666726
H           -4.11617760209114       -3.96585079889179       -2.93576537446729
H           -3.58158753999271       -4.76061401684996       -1.44412377064764
H           -1.33803239792435       -6.37967594152438       -2.66913514076749
H           -0.01678093509631       -5.22431032592864       -2.51123802825759
H           -1.15307404411876       -5.44564521175363       -1.18179499038492
H           -0.79188067131693       -4.06698336729571       -4.65562430613776
H           -2.44295475047332       -3.46330583840016       -4.77408574334334
H           -2.13095692523667       -5.20170589776821       -4.80654253678250
H            0.41539126098983       -3.08519011131249       -3.04481432140921
H            1.18397072878940       -0.95394856152388       -2.15274275833621
H            3.63192204727563       -1.79450262532142       -1.99244513756730
H            3.13881450787558       -0.13385810405762       -1.64043595579315
H            4.78923407149919       -0.48205465720178       -2.16472788971491
H            6.32265884012023       -1.65910984862434       -0.79144999134619
H            7.59451289912699       -3.05556003092723        2.26741354259446
H            8.18138986605721       -1.42385208419086        1.96395099875055
H            8.02704534072691       -2.56194436588872        0.62244254840886
H            5.68240856225451       -1.73184232377497        3.41122211640023
H            2.83936986035860        0.15461795106980        3.50101932054296
H            2.28959218106390       -1.51369250348010        3.43460402454493
H            3.73886704122681       -1.10090600162036        4.35734551160975
H           -0.76274535902254        1.62048553704434        2.70516996375725
H            0.93904114646370        1.52680746784632        2.21751563621014
H            0.43725406172960        0.97337091627570        3.81469593665273
H           -1.93659276822681       -0.46811582834030        3.33216870679729
