99
 energy: -139.777053288381 gnorm: 0.000108189225 xtb: 6.7.1 (edcfbbe)
C           -2.73683317835476       -3.07104678492660        2.32414623223552
C           -1.45418482678175       -2.35907310996546        2.04146740158046
C           -0.41697827156324       -3.00311579922322        1.36582983745882
C            0.75940508531942       -2.35414240030888        1.05722008080084
C            1.85006353645932       -3.10442318288638        0.36018156428649
C            0.92227255930773       -0.98194649463072        1.37005097665233
B            2.10016116915360       -0.14301150829999        0.76585725805499
C            1.84560556276152        1.12587062712039       -0.02587515263358
C            2.87801983569349        2.09526105843472       -0.21330829089875
C            2.67555873401235        3.32877473283724       -0.75090030565746
C            1.37986851483764        3.70131100534208       -1.18233571265706
C            1.12370713420636        5.00759782355707       -1.81238057784253
F            2.05927994182620        5.94141250860075       -1.55310771475894
F           -0.06086104278993        5.56407186600805       -1.44963862297253
F            1.05244965524758        4.96358822157382       -3.18411734542326
C            0.34286440798363        2.76928005926552       -1.08554218860997
C            0.55153697045338        1.51672027043268       -0.55128214334718
N           -0.55052875506525        0.65324792662611       -0.51462307260294
C           -1.78296902488145        0.96833103007600        0.01248908637825
C           -2.20321889848543        2.10800102029142        0.68751179050722
C           -3.51031638033953        2.15644879068082        1.12849563689032
C           -4.42100824933787        1.10991170782123        0.92677411930743
C           -5.84405749980005        1.26334621515658        1.44014084494038
C           -6.71593530149933        0.03961279811606        1.14218002499610
C           -5.81604102289503        1.46955723953963        2.96248166612425
C           -6.48761177919057        2.48399310202494        0.76357058157175
C           -3.98776512039615       -0.02656633514971        0.24978537809139
C           -2.68314858683285       -0.10008337342990       -0.20522368518509
C           -1.95354747000697       -1.09332499202662       -0.95407537815158
C           -2.31090972222832       -2.30963681789222       -1.51057694378907
C           -1.38767938794170       -3.01682661276891       -2.27318931496376
C           -1.71075400938301       -4.35951695662539       -2.91042747522376
C           -3.12384024093317       -4.84823267009494       -2.57754309153880
C           -0.71142386025671       -5.40982389466337       -2.40287467590872
C           -1.59738049798305       -4.23049353280770       -4.43733674685457
C           -0.12224331728327       -2.45402181672274       -2.48206093864859
C            0.25883899012987       -1.24491015498467       -1.93622199170082
C           -0.65512011718903       -0.57246151568166       -1.14042575596883
C            3.60309410230757       -0.61179594796014        1.01028666496816
C            4.50831622914072       -0.80153163922284       -0.04253230987805
C            4.13336713657309       -0.65205166000281       -1.49002045409226
C            5.81626211371771       -1.19676493807148        0.22043828525899
C            6.26849190467755       -1.41700522812832        1.50857581559946
C            7.68441086132588       -1.82733256453847        1.78547518713708
C            5.36901457530101       -1.23014149740242        2.54961963320857
C            4.05962763136958       -0.83880122700617        2.32024745612898
C            3.16410030899638       -0.61838119190176        3.50246641938474
C           -0.07727127602237       -0.37155482123734        2.16542091661976
C            0.10615329465681        0.99246328700225        2.75855483422924
C           -1.24841023290246       -1.05101426876230        2.45667092572123
H           -2.55897786673779       -4.11982830962326        2.55471914607946
H           -3.26894498995163       -2.60774094534685        3.15170337246451
H           -3.37528136205383       -3.02566551361590        1.44123488807853
H           -0.54360775739162       -4.03708329878910        1.07673000926308
H            2.70869847161652       -3.22061138955829        1.02068817706963
H            2.18368252643827       -2.55740321155636       -0.51667834330517
H            1.50717725594983       -4.09046887472572        0.05687300960198
H            3.86827988787088        1.83133519370089        0.12689813494333
H            3.48529982064349        4.03684515965926       -0.84644347407191
H           -0.63046049357680        3.02342728602040       -1.48329851317312
H           -1.53338195467163        2.93760370634525        0.85547537108309
H           -3.83240838215246        3.04639365050579        1.64674392837926
H           -6.80072850450973       -0.12975940139911        0.07121848869020
H           -6.31548538279845       -0.85271967472007        1.61735885364048
H           -7.71714014344128        0.20677315402118        1.53423467424674
H           -5.24812947380712        2.35456764014320        3.23545764618242
H           -6.82947009040370        1.58720268631894        3.34024954028200
H           -5.36496176322908        0.60875546993051        3.45167854247879
H           -5.95332145506821        3.39986041399599        1.00053785942061
H           -6.48650372480917        2.35987358250529       -0.31771027314131
H           -7.51724142767783        2.59533404335109        1.09691861477937
H           -4.65145491767498       -0.85400276426473        0.06580864298448
H           -3.30941499127026       -2.68097690875797       -1.35390237615792
H           -3.29060337310828       -5.81621971499974       -3.04599183839580
H           -3.87684982677782       -4.16095128603158       -2.95640200671220
H           -3.25404644067176       -4.96885699209396       -1.50468940411513
H           -0.93245343775745       -6.37941073662844       -2.84432840397344
H            0.31004273365227       -5.14471651749832       -2.65972466866327
H           -0.78041628048351       -5.50043576792708       -1.32107132073426
H           -0.59021667737490       -3.95882814164470       -4.74059276134418
H           -2.28083263432564       -3.46651177630460       -4.80299072614991
H           -1.85172479083320       -5.17616590103371       -4.91145954942638
H            0.59198744345403       -2.97384140364730       -3.10111626492540
H            1.23215035801755       -0.82795463706386       -2.13481153144479
H            4.90103101589830       -0.09413309919144       -2.02459494324473
H            4.05409821975113       -1.63487315355708       -1.95757225199990
H            3.18946338884544       -0.12982793700233       -1.60065421077305
H            6.48993836340164       -1.34457127622929       -0.61356818714154
H            8.24261073985046       -0.98928458634722        2.20524327688277
H            8.18273797610301       -2.14717095317025        0.87316395472993
H            7.71424444319860       -2.64208263975233        2.50750558521906
H            5.70359281708831       -1.38328414340477        3.56728030434801
H            2.88367904047141        0.43174255199853        3.56545457777573
H            2.25208375222890       -1.20396443826790        3.40601477792236
H            3.66539782861929       -0.89974934536076        4.42611700610388
H           -0.83986262032970        1.52916938026816        2.78516211832002
H            0.83944413293692        1.57483800867154        2.20865958296552
H            0.45453197940204        0.89240319247593        3.78774279163456
H           -2.01572236237872       -0.54904530885322        3.02976725790360
