99
 energy: -139.777074785332 gnorm: 0.000058997516 xtb: 6.7.1 (edcfbbe)
C           -2.89965763583218       -2.86646041739738        2.39539460277466
C           -1.57977393872623       -2.23518167341541        2.09308428415280
C           -0.58714022585891       -2.94990806691477        1.42131403547753
C            0.62304960092337       -2.37637101014746        1.09473122864620
C            1.66222112189360       -3.19985399381870        0.40158157531099
C            0.86842966034461       -1.01121353679325        1.38415213134988
B            2.08852324285957       -0.25295618493786        0.75802381076954
C            1.90109594324974        1.01359208314140       -0.05588461485485
C            2.98643041610979        1.91715544526026       -0.27032240442917
C            2.85017216481077        3.15165722659973       -0.82608391842568
C            1.57372325034479        3.59242303391009       -1.25090905959283
C            1.39111333443476        4.90151310918133       -1.90041347594976
F            2.36034649165168        5.79653614830294       -1.62488206335211
F            0.22376558648885        5.51259929419800       -1.57551846545266
F            1.35661411503255        4.84668774884012       -3.27358564138389
C            0.48587516301803        2.72324471052195       -1.13111218320118
C            0.62695049962477        1.46957806216714       -0.57755806263727
N           -0.52272488505104        0.67190673259137       -0.51820488843482
C           -1.73076702732680        1.06632501449741        0.01219535555160
C           -2.07941276965408        2.23848518523156        0.67227754724558
C           -3.37839339662753        2.36944882303580        1.12056022752496
C           -4.35009522258731        1.37519667040173        0.93991566308594
C           -5.75829673004472        1.61837697930268        1.45952961257734
C           -6.70283619597248        0.44522212428835        1.18000489961493
C           -5.70769829981237        1.83889263399181        2.97929159686753
C           -6.33372997630879        2.86743044876904        0.77353358989455
C           -3.98838982660145        0.20555998500287        0.27766460411505
C           -2.69336364873854        0.04931782820620       -0.18361222878436
C           -2.02877890801962       -0.99560976591993       -0.92239376847451
C           -2.46146651388974       -2.19609562570380       -1.45928474312073
C           -1.58748501415554       -2.96689054968628       -2.21825753440564
C           -1.99445199945686       -4.29637280229731       -2.83471634943706
C           -3.43442113473341       -4.69143558484538       -2.49266554425780
C           -1.06062426264031       -5.39835292455735       -2.31225521438923
C           -1.87679843986475       -4.19784003460539       -4.36359117637202
C           -0.29245074778183       -2.48310926593920       -2.44283357059384
C            0.16323605845673       -1.29101876834933       -1.91691370613652
C           -0.70349546699692       -0.55462011252859       -1.12490455785815
C            3.56355298633188       -0.80407228316157        1.00050429032664
C            4.44587010226821       -1.07057441787770       -0.05473733385957
C            4.07049063052740       -0.92147878492829       -1.50212085808499
C            5.72791658063269       -1.54443708388690        0.20628216063312
C            6.17628644685765       -1.76830004600394        1.49506017480486
C            7.56429517997725       -2.26619729401819        1.77016616968841
C            5.30039400349198       -1.50197171034204        2.53904781587888
C            4.01711244382917       -1.03143479563646        2.31155240084394
C            3.14809895279568       -0.72857770205420        3.49519002718390
C           -0.08774536416053       -0.33048714343213        2.17577937064395
C            0.17982045717516        1.03004948402206        2.74439017145382
C           -1.29440927508908       -0.93529662947555        2.48599502288248
H           -3.53089902086867       -2.82376716289467        1.50736109844938
H           -2.77827853529514       -3.91303313085640        2.66890694056941
H           -3.40955788491150       -2.34313312564955        3.20067532266959
H           -0.77681157041921       -3.97897070971843        1.14968683776441
H            2.52551511097995       -3.34237091679507        1.05061435931225
H            2.00776760047318       -2.69401208273379       -0.49529666188324
H            1.26417244692274       -4.17447952021136        0.13040463398469
H            3.96313597470635        1.60137947571958        0.06479669962220
H            3.69824226201105        3.81026519739575       -0.94102391487480
H           -0.47492876432844        3.02647945068426       -1.52482044598005
H           -1.36183000852282        3.03069694323566        0.82298052039226
H           -3.64457219071896        3.28407655889458        1.62750234799276
H           -6.80286417371520        0.26898440995312        0.11146515429913
H           -6.35388443252057       -0.46388084693175        1.66382518360211
H           -7.69037512465669        0.67604307658016        1.57439667463054
H           -5.08986159061232        2.69417038073066        3.23833231013762
H           -6.71029388794713        2.01609210835128        3.36268578045656
H           -5.30102211609866        0.95986927573874        3.47492106435264
H           -5.74575178779231        3.75317480204366        0.99748332488809
H           -6.34688841136839        2.73205030902011       -0.30630980769471
H           -7.35298081307406        3.04197420692236        1.11163509496155
H           -4.70027949635371       -0.58438763649588        0.10998182968819
H           -3.47903455522825       -2.50531788549432       -1.29093498773256
H           -3.66288412722159       -5.65321135455742       -2.94775572986910
H           -4.14367974628001       -3.96316453248092       -2.87930597670016
H           -3.56923586852149       -4.78955177675003       -1.41809543147492
H           -1.34176826331042       -6.35904060022384       -2.73869160941385
H           -0.02534480898849       -5.20016909518108       -2.57412478107646
H           -1.13292332405446       -5.46806364699670       -1.22911935733829
H           -0.85463948757652       -3.99845689259212       -4.67268062057791
H           -2.50905855327007       -3.39572179457152       -4.73956294195335
H           -2.19461392616741       -5.13152233449807       -4.82292402282618
H            0.38548392882803       -3.05288749002842       -3.05873351927993
H            1.15769860750944       -0.93469949785522       -2.12852522789049
H            3.94449640276128       -1.90481716884496       -1.95802198391715
H            3.15096955382162       -0.35781034878512       -1.61430916519488
H            4.86001194783593       -0.40494355993347       -2.04649554308820
H            6.38313516351387       -1.75152381725950       -0.62982452881157
H            7.54280402075064       -3.08769560607117        2.48499382473944
H            8.17189407973154       -1.46784902928003        2.19842975471594
H            8.04364196410515       -2.60823680105457        0.85580055067663
H            5.63373663070975       -1.65522796150014        3.55709121188522
H            2.93162803992522        0.33770466845956        3.53414964963896
H            2.20186373097293       -1.26075575936181        3.42075570027681
H            3.64067042179675       -1.01690726296890        4.42139401725741
H           -0.73386626456803        1.62003034297436        2.77237148533675
H            0.93865151018572        1.56091837520262        2.17717842668764
H            0.53410683044700        0.92678197426860        3.77123298647965
H           -2.02659547692937       -0.38035795924155        3.05613647397721
