  92
       -138.20179630
 C         -8.7609951977       -2.1009918959        0.0564736688
 C         -7.8717954172       -0.8466039713       -0.0250168317
 C         -8.7445502910        0.4176158795       -0.1294628727
 C         -7.0078793893       -0.9430535445       -1.2666484590
 C         -7.6078504163       -1.0313521375       -2.5149275927
 C         -6.8676906653       -1.1174182204       -3.6798833587
 C         -5.4850776022       -1.1122638279       -3.6077714316
 C         -4.8622953080       -1.0268005139       -2.3816943958
 C         -5.6089546567       -0.9455649780       -1.2005436689
 N         -4.9555628216       -0.8701224114        0.0138301153
 C         -3.5323086515       -0.8933469321        0.0292938685
 C         -2.8558301270       -2.1210220481        0.0505398243
 C         -1.4846309942       -2.1485336945        0.0511053507
 C         -0.7194739490       -0.9705744079        0.0323617097
 C          0.7194891526       -0.9704247490        0.0244847654
 C          1.4858375922       -2.1477437590        0.0191368200
 C          2.8570668834       -2.1187929838        0.0100721936
 C          3.5323610699       -0.8903828437        0.0083912790
 N          4.9555820426       -0.8654710937        0.0031858742
 C          5.6281914979       -0.9246844078        1.2078200219
 C          4.9003173225       -0.9816325975        2.4019108744
 C          5.5424560921       -1.0497692058        3.6190810975
 C          6.9259072968       -1.0623222979        3.6689293383
 C          7.6475788061       -1.0005757989        2.4909308444
 C          7.0279338522       -0.9288251934        1.2512696377
 C          7.8719202435       -0.8588785895       -0.0057658445
 C          8.7670898011        0.3914318411        0.0708988468
 C          8.7385196692       -2.1290355346       -0.0889485820
 C          7.0196798736       -0.7719690956       -1.2562622153
 C          7.6316104046       -0.6896383175       -2.4991342963
 C          6.9027644032       -0.6166822235       -3.6720127935
 C          5.5196392034       -0.6288663147       -3.6136420849
 C          4.8850449810       -0.7113719093       -2.3934283361
 C          5.6201723544       -0.7806987615       -1.2044848421
 C          2.8174138548        0.2819861993        0.0114903702
 C          1.4148705907        0.2654796692        0.0167654089
 C          0.7119921123        1.5103660101        0.0104317378
 N          1.3631922549        2.6621229682        0.0003375489
 C          0.7218313248        3.8329669017       -0.0116120497
 C          1.3941571772        5.0535026762       -0.0263189782
 C          0.6946960423        6.2465019594       -0.0376114190
 C         -0.6930857008        6.2468911012       -0.0338394982
 C         -1.3936256662        5.0544695625       -0.0200317913
 C         -0.7225839127        3.8331716405       -0.0098432665
 N         -1.3644881530        2.6624827564        0.0006205623
 C         -0.7137756918        1.5103351818        0.0101723726
 C         -1.4158955239        0.2649007470        0.0206920500
 C         -2.8185933208        0.2797357939        0.0172191353
 C         -5.6393062214       -0.7737754285        1.2097269406
 C         -4.9231160142       -0.6993152602        2.4098324211
 C         -5.5769691080       -0.6048992516        3.6189851997
 C         -6.9607986340       -0.5844774285        3.6546701425
 C         -7.6709956816       -0.6622418535        2.4706570902
 C         -7.0394240686       -0.7583303766        1.2387005503
 H         -9.3887715944       -2.1884515554       -0.8255944986
 H         -8.1395119959       -2.9917999092        0.1257356388
 H         -9.4047313937       -2.0632110867        0.9305579142
 H         -9.3603941492        0.3903786544       -1.0237458487
 H         -9.3992137226        0.5085598536        0.7325637329
 H         -8.1107846515        1.3011459953       -0.1748604336
 H         -8.6848957179       -1.0331255742       -2.5874860725
 H         -7.3666579240       -1.1856818895       -4.6342438864
 H         -4.8897912553       -1.1743624601       -4.5063474343
 H         -3.7849316544       -1.0193868519       -2.3292553703
 H         -3.4267904343       -3.0374283659        0.0641784481
 H         -0.9935280559       -3.1080530739        0.0679712856
 H          0.9958794230       -3.1079253449        0.0197025247
 H          3.4288584514       -3.0347368016        0.0049896597
 H          3.8223504795       -0.9686683089        2.3662776581
 H          4.9617268388       -1.0924861837        4.5281301574
 H          7.4398875345       -1.1173669527        4.6161790734
 H          8.7254694229       -1.0089203752        2.5459386137
 H          9.3948770390        0.4735959649       -0.8116762669
 H          9.4115702398        0.3533613784        0.9443948339
 H          8.1492067864        1.2847753819        0.1379684047
 H          8.1007487197       -3.0095620791       -0.1397719943
 H          9.3684797940       -2.1104931976       -0.9737293436
 H          9.3784841306       -2.2189856592        0.7842707484
 H          8.7091650710       -0.6834073772       -2.5609993200
 H          7.4109345926       -0.5527809321       -4.6218219850
 H          4.9332704618       -0.5747684563       -4.5184524392
 H          3.8073152599       -0.7215663261       -2.3512103809
 H          3.3215738113        1.2357425598        0.0070985825
 H          2.4731471103        5.0390613220       -0.0289081282
 H          1.2348568782        7.1810490302       -0.0488656795
 H         -1.2325210217        7.1818908258       -0.0416604224
 H         -2.4726338398        5.0414934058       -0.0170550637
 H         -3.3239296751        1.2328615476        0.0045635194
 H         -3.8449390013       -0.7146704301        2.3847130069
 H         -5.0052203349       -0.5469505830        4.5328563505
 H         -7.4839437138       -0.5098667550        4.5955332588
 H         -8.7492562660       -0.6477362229        2.5146442375
