  92
  -137.608594459000       0.509353144909911      !
 C         -8.6799139074       -2.1647329929       -0.5100598039
 C         -7.8725812039       -0.9327516239       -0.0608753316
 C         -8.8251594064        0.2073765221        0.3439774091
 C         -7.0170811577       -0.4683119409       -1.2224629648
 C         -7.6291607480       -0.0695582174       -2.4027260191
 C         -6.9018679161        0.3358815780       -3.5061918002
 C         -5.5192391291        0.3306680097       -3.4439839836
 C         -4.8848922237       -0.0614409362       -2.2854528179
 C         -5.6180147389       -0.4486056919       -1.1577797679
 N         -4.9557945171       -0.8277515318       -0.0037941062
 C         -3.5351569610       -0.8461010255        0.0090583500
 C         -2.8581401552       -2.0738949527       -0.0348374450
 C         -1.4876249156       -2.1044991468       -0.0254124643
 C         -0.7201925450       -0.9284761335        0.0167601573
 C          0.7180390626       -0.9308934227        0.0130683702
 C          1.4805933810       -2.1108513470        0.0050734071
 C          2.8512158708       -2.0860844479       -0.0008117181
 C          3.5322178924       -0.8599225802       -0.0062579588
 N          4.9536482641       -0.8467129057       -0.0229168593
 C          5.6414419153       -0.5642213062        1.1428982156
 C          4.9321929898       -0.2805241106        2.3156379631
 C          5.5915474599        0.0095559135        3.4901582401
 C          6.9754530153        0.0155940757        3.5212255529
 C          7.6792085453       -0.2832885968        2.3693931924
 C          7.0416634590       -0.5790786169        1.1725529301
 C          7.8710021103       -0.9231123939       -0.0484357395
 C          8.7877383530        0.2696283166       -0.3769508929
 C          8.7150084334       -2.1715717279        0.2672790796
 C          7.0047933159       -1.2114033252       -1.2578518998
 C          7.6033708766       -1.5386383613       -2.4664673555
 C          6.8636354525       -1.7890160898       -3.6074976985
 C          5.4834112190       -1.6984824340       -3.5535478185
 C          4.8622951952       -1.3783067097       -2.3659583227
 C          5.6069385539       -1.1472839937       -1.2032850231
 C          2.8201307005        0.3147908364        0.0043299106
 C          1.4173752121        0.3028094948        0.0206013168
 C          0.7165468062        1.5487502233        0.0499981190
 N          1.3685556118        2.7003145255        0.0599385813
 C          0.7294031680        3.8718023692        0.0947571109
 C          1.4022452168        5.0920111649        0.1103935188
 C          0.7037953026        6.2854511007        0.1405821560
 C         -0.6837904109        6.2871350663        0.1556736548
 C         -1.3852095352        5.0951731336        0.1433532924
 C         -0.7152588083        3.8735963563        0.1154980691
 N         -1.3579042754        2.7036060012        0.1076610312
 C         -0.7093874867        1.5506004937        0.0753805249
 C         -1.4149486875        0.3071657409        0.0538380094
 C         -2.8175421598        0.3246631625        0.0577514431
 C         -5.6364287523       -1.2271373429        1.1315251337
 C         -4.9200255272       -1.5381143837        2.2932451010
 C         -5.5673181514       -1.9605593776        3.4339346388
 C         -6.9466513521       -2.0753812105        3.4415939589
 C         -7.6594398956       -1.7424598621        2.3045965276
 C         -7.0342587497       -1.3101872079        1.1434119766
 H         -8.0028663384       -2.9660856248       -0.7998289238
 H         -9.3144793860       -2.5257391971        0.2943071451
 H         -9.3104544581       -1.9244893383       -1.3613525606
 H         -9.4696166767       -0.0989225977        1.1629108485
 H         -8.2496651429        1.0736218923        0.6644287869
 H         -9.4539759468        0.5022142369       -0.4910339427
 H         -8.7062765992       -0.0760982504       -2.4700505328
 H         -7.4097745098        0.6447543340       -4.4067759210
 H         -4.9313795118        0.6303815337       -4.2983218422
 H         -3.8074905509       -0.0711485750       -2.2490683419
 H         -3.4298715595       -2.9891625696       -0.0744423681
 H         -0.9988991797       -3.0645908823       -0.0624491314
 H          0.9875682319       -3.0694080732        0.0108935459
 H          3.4200523994       -3.0039734404       -0.0044603840
 H          3.8540821006       -0.2902666292        2.3000417289
 H          5.0230190052        0.2291429981        4.3811870704
 H          7.5029872533        0.2439368139        4.4344595927
 H          8.7576971408       -0.2870223795        2.4109514468
 H          9.4094429413        0.0539461588       -1.2411510685
 H          9.4382562298        0.5010655074        0.4615431622
 H          8.1850188111        1.1484408417       -0.5977549574
 H          9.3656198759       -1.9941671165        1.1188473306
 H          8.0621616289       -3.0100058546        0.5028683987
 H          9.3332213993       -2.4463847867       -0.5825749113
 H          8.6792552001       -1.6005146707       -2.5261836304
 H          7.3612685948       -2.0436838204       -4.5305238207
 H          4.8882673940       -1.8747689678       -4.4368548822
 H          3.7873088123       -1.2986953501       -2.3325624067
 H          3.3267532844        1.2673594115        0.0055965805
 H          2.4811750569        5.0777514302        0.0987447507
 H          1.2448684832        7.2194680402        0.1518269286
 H         -1.2223101401        7.2224165250        0.1777596166
 H         -2.4641622393        5.0825466059        0.1543467133
 H         -3.3200999668        1.2788701837        0.0898353416
 H         -3.8461480775       -1.4392428853        2.2974183231
 H         -4.9931677952       -2.1974861810        4.3169170516
 H         -7.4646297453       -2.4114589356        4.3265563308
 H         -8.7353663337       -1.8237078374        2.3293741920
  92
  -137.608371572400       0.402334618626006      !
 C         -8.7618302980       -2.0982558981       -0.0067150221
 C         -7.8722075503       -0.8420434319       -0.0428760952
 C         -8.7445718829        0.4255306831       -0.0985376673
 C         -7.0104817842       -0.8924114459       -1.2887469908
 C         -7.6126485527       -0.9338213141       -2.5384041743
 C         -6.8745416986       -0.9766274898       -3.7070494017
 C         -5.4918039146       -0.9747018391       -3.6372060591
 C         -4.8668655560       -0.9353053140       -2.4098810722
 C         -5.6114461905       -0.8979283362       -1.2252211736
 N         -4.9559230770       -0.8681205232       -0.0100186798
 C         -3.5326549204       -0.8924551213        0.0020858879
 C         -2.8566939203       -2.1203285670       -0.0236881892
 C         -1.4855083925       -2.1483711013       -0.0265407103
 C         -0.7198541982       -0.9708283644       -0.0026353475
 C          0.7190930660       -0.9709398737       -0.0130100705
 C          1.4849005751       -2.1475342836       -0.0636365102
 C          2.8561250617       -2.1187942884       -0.0740049238
 C          3.5319687552       -0.8914381142       -0.0310088818
 N          4.9551896889       -0.8668984423       -0.0377621837
 C          5.6298528905       -0.9712965064        1.1626476357
 C          4.9040174969       -1.0724972146        2.3550478511
 C          5.5482277019       -1.1862685453        3.5677050347
 C          6.9317571781       -1.2012073019        3.6146378075
 C          7.6514198836       -1.0958099314        2.4385086336
 C          7.0296662243       -0.9775962567        1.2034718568
 C          7.8715107428       -0.8611013900       -0.0515462755
 C          8.7673746986        0.3851305079        0.0701747735
 C          8.7373927565       -2.1276022838       -0.1835933204
 C          7.0171501464       -0.7272452120       -1.2964392735
 C          7.6269692276       -0.5988139763       -2.5364370346
 C          6.8961306326       -0.4818463914       -3.7045023525
 C          5.5131030075       -0.4956672964       -3.6442156983
 C          4.8805810407       -0.6234186944       -2.4268274550
 C          5.6177303918       -0.7373616640       -1.2425838426
 C          2.8175562725        0.2802738954        0.0170958864
 C          1.4150169219        0.2641230090        0.0241964652
 C          0.7126895320        1.5086492218        0.0655608885
 N          1.3643901448        2.6597289868        0.0973302882
 C          0.7235371398        3.8304503005        0.1302116494
 C          1.3963864482        5.0504249774        0.1599020221
 C          0.6974444492        6.2432840807        0.1943683796
 C         -0.6903283885        6.2440675037        0.2005718222
 C         -1.3913806511        5.0522319168        0.1710814751
 C         -0.7208726462        3.8311460690        0.1345052120
 N         -1.3632852631        2.6611301898        0.1023823097
 C         -0.7130764610        1.5091781007        0.0677864139
 C         -1.4157381554        0.2644899129        0.0330342626
 C         -2.8184330326        0.2799853612        0.0325631621
 C         -5.6375555741       -0.8162173436        1.1898313914
 C         -4.9192592857       -0.7868828624        2.3906293861
 C         -5.5709794894       -0.7374156596        3.6036019599
 C         -6.9547359472       -0.7178062914        3.6424370098
 C         -7.6670127682       -0.7510457360        2.4575864159
 C         -7.0376141662       -0.8013244739        1.2218024254
 H         -9.3911692345       -2.1524866060       -0.8903372160
 H         -8.1406297825       -2.9912681652        0.0281635881
 H         -9.4040381064       -2.0928808917        0.8692913636
 H         -9.3619722715        0.4319317852       -0.9921390053
 H         -9.3977037901        0.4844861019        0.7674229867
 H         -8.1104876022        1.3098950906       -0.1120287561
 H         -8.6898183106       -0.9324695724       -2.6091003207
 H         -7.3751879680       -1.0090267488       -4.6624215133
 H         -4.8980991546       -1.0034448010       -4.5385103404
 H         -3.7894096698       -0.9302698658       -2.3590803491
 H         -3.4280426587       -3.0363849924       -0.0432705370
 H         -0.9948094277       -3.1080407087       -0.0463590258
 H          0.9945115329       -3.1068787273       -0.0980578863
 H          3.4274942366       -3.0341305412       -0.1142705053
 H          3.8259966429       -1.0577960099        2.3218029042
 H          4.9690508817       -1.2626646900        4.4755371993
 H          7.4473485563       -1.2917707800        4.5582751566
 H          8.7294000704       -1.1066178273        2.4912871759
 H          9.3936729468        0.4999399316       -0.8098115282
 H          9.4133462781        0.3142321273        0.9405159558
 H          8.1500110754        1.2755861663        0.1716208410
 H          8.0991382643       -3.0053719341       -0.2661369031
 H          9.3658314107       -2.0762888080       -1.0681623445
 H          9.3788245123       -2.2503320967        0.6845427469
 H          8.7044180864       -0.5906937602       -2.5999050086
 H          7.4026876199       -0.3827312152       -4.6521489201
 H          4.9251961456       -0.4076062065       -4.5453524375
 H          3.8029213934       -0.6347661715       -2.3831404679
 H          3.3221375732        1.2333349336        0.0474292546
 H          2.4753636803        5.0356741055        0.1548943796
 H          1.2380060590        7.1773914927        0.2170642695
 H         -1.2293550778        7.1789155595        0.2285978485
 H         -2.4703878076        5.0395699275        0.1754530359
 H         -3.3233609964        1.2331141274        0.0563750158
 H         -3.8411343144       -0.8017055902        2.3630745223
 H         -4.9976264313       -0.7138409011        4.5180010465
 H         -7.4762208493       -0.6781663308        4.5863401304
 H         -8.7451890918       -0.7377762174        2.5039642698
  92
  -137.606509518000       5.608496462655913E-002 !
 C         -8.7269126373       -2.1019479413       -0.4496462595
 C         -7.8759807125       -0.8808267207       -0.0548731331
 C         -8.7863282064        0.3058979722        0.3107843758
 C         -7.0153159917       -0.4898020539       -1.2394968843
 C         -7.6224034278       -0.1302352133       -2.4348224686
 C         -6.8897119499        0.2111725279       -3.5563699685
 C         -5.5070683073        0.1846402759       -3.4957527102
 C         -4.8777393743       -0.1680406041       -2.3219758158
 C         -5.6160848299       -0.4958206206       -1.1788979142
 N         -4.9579210904       -0.8414881272       -0.0126743613
 C         -3.5367508145       -0.8674224523       -0.0003051209
 C         -2.8630725894       -2.0965815865       -0.0478911390
 C         -1.4923519005       -2.1296271070       -0.0413193834
 C         -0.7224966200       -0.9553264741        0.0041659639
 C          0.7159761996       -0.9601179495       -0.0009676174
 C          1.4785496172       -2.1398990683       -0.0216777138
 C          2.8496023174       -2.1156508594       -0.0255137696
 C          3.5306160950       -0.8897327253       -0.0161532147
 N          4.9519997165       -0.8699986178       -0.0284160479
 C          5.6337343670       -0.5856984269        1.1404837991
 C          4.9184735631       -0.3349681322        2.3171670699
 C          5.5712394534       -0.0445788217        3.4952867077
 C          6.9546419588       -0.0055914909        3.5260377533
 C          7.6647319025       -0.2718578830        2.3700890995
 C          7.0338016629       -0.5665569029        1.1694351694
 C          7.8702281360       -0.8736077918       -0.0566038486
 C          8.7645573151        0.3414952933       -0.3637927049
 C          8.7373474641       -2.1112925536        0.2389198273
 C          7.0102074887       -1.1600858136       -1.2709742320
 C          7.6156934048       -1.4506529585       -2.4855182824
 C          6.8814161441       -1.7021149691       -3.6298182438
 C          5.4992686727       -1.6512346341       -3.5727887388
 C          4.8714313846       -1.3672442904       -2.3795730076
 C          5.6112359294       -1.1341902129       -1.2142656644
 C          2.8182980478        0.2846896950        0.0043209228
 C          1.4160112280        0.2729779467        0.0183198557
 C          0.7176198547        1.5198332176        0.0580678992
 N          1.3724634896        2.6693271969        0.0796055911
 C          0.7357400422        3.8416942841        0.1253826585
 C          1.4120516996        5.0597205956        0.1534190401
 C          0.7167716959        6.2545331516        0.1969450153
 C         -0.6708364620        6.2592535295        0.2134374705
 C         -1.3753737662        5.0693109299        0.1880570229
 C         -0.7086548700        3.8463474623        0.1459153979
 N         -1.3541653802        2.6780315706        0.1246601070
 C         -0.7079590304        1.5241358299        0.0812617891
 C         -1.4147494878        0.2816866382        0.0486632664
 C         -2.8171829345        0.3017160064        0.0515643052
 C         -5.6413059368       -1.1898850172        1.1371337968
 C         -4.9257279019       -1.4857992264        2.3033343403
 C         -5.5771168740       -1.8555280286        3.4598717669
 C         -6.9592416615       -1.9305005304        3.4790608410
 C         -7.6701761401       -1.6150423265        2.3358893567
 C         -7.0406532085       -1.2381537877        1.1578382410
 H         -9.3603205693       -1.8735423554       -1.3019608974
 H         -8.0781893216       -2.9339028768       -0.7171187439
 H         -9.3627672012       -2.4138332790        0.3739859816
 H         -8.1792967903        1.1627514430        0.5965353115
 H         -9.4082268057        0.5915807748       -0.5326090882
 H         -9.4365392654        0.0528829512        1.1433000138
 H         -8.6996429810       -0.1175965767       -2.4997581693
 H         -7.3938599127        0.4878655562       -4.4694561061
 H         -4.9160812929        0.4363638232       -4.3634657500
 H         -3.8004798782       -0.1933535514       -2.2842055001
 H         -3.4368553867       -3.0105097381       -0.0885783684
 H         -1.0050603846       -3.0903812359       -0.0813580923
 H          0.9853100558       -3.0984411473       -0.0281767717
 H          3.4176223313       -3.0339636988       -0.0386593860
 H          3.8409023645       -0.3705853890        2.3014918047
 H          4.9981774669        0.1495876946        4.3893067387
 H          7.4770112720        0.2233522466        4.4420865200
 H          8.7430030919       -0.2497833835        2.4112468081
 H          9.3872716449        0.1545721466       -1.2338744197
 H          9.4137886160        0.5672512965        0.4771565400
 H          8.1458913022        1.2139032945       -0.5649108185
 H          9.3814636501       -1.9370201260        1.0960601293
 H          8.0996940270       -2.9660656403        0.4565512988
 H          9.3630216786       -2.3580935548       -0.6140911253
 H          8.6927740352       -1.4824952278       -2.5472905574
 H          7.3844141651       -1.9274939547       -4.5575117816
 H          4.9079607931       -1.8298871206       -4.4581626443
 H          3.7947373829       -1.3179937447       -2.3436389707
 H          3.3253289378        1.2369533308        0.0159544763
 H          2.4909221232        5.0421040836        0.1410343300
 H          1.2602074733        7.1869956039        0.2178908098
 H         -1.2070873434        7.1955152395        0.2464248649
 H         -2.4543493954        5.0595831012        0.1995686260
 H         -3.3182444247        1.2566357800        0.0855946531
 H         -3.8493827999       -1.4176920027        2.2971093499
 H         -5.0044329664       -2.0820519355        4.3465515089
 H         -7.4803980461       -2.2237194107        4.3773078517
 H         -8.7478817309       -1.6650239936        2.3691190119
  92
  -137.605070347600       1.223064971625836E-002 !
 C         -7.3834961219        1.2504106018        0.5943360900
 C         -7.6891683022       -0.1970554801        0.1470142350
 C         -9.2062548523       -0.3620093805        0.0577829349
 C         -7.0582659812       -1.1154025735        1.1746115319
 C         -7.7633739825       -1.6683467563        2.2302641447
 C         -7.1229831030       -2.3569653937        3.2475542227
 C         -5.7446140155       -2.4698419497        3.2347056419
 C         -5.0208851470       -1.9546481086        2.1790011433
 C         -5.6682546272       -1.3125536501        1.1218764814
 N         -4.9578722755       -0.8732456634        0.0168954110
 C         -3.5389188828       -0.9217060931        0.0125715370
 C         -2.8525931071       -2.1445726203       -0.0457245584
 C         -1.4816002251       -2.1634191871       -0.0480707556
 C         -0.7228900856       -0.9815455901       -0.0049532398
 C          0.7154659429       -0.9721845983       -0.0061155219
 C          1.4884361346       -2.1452286598        0.0004691814
 C          2.8590735207       -2.1086371163        0.0035319868
 C          3.5291148144       -0.8765993479       -0.0081315131
 N          4.9503235378       -0.8469602385       -0.0110674359
 C          5.6219032582       -0.5360743860        1.1570141140
 C          4.8966198880       -0.2591512394        2.3216999215
 C          5.5391010082        0.0580424278        3.4984537571
 C          6.9221248925        0.0992353003        3.5399763393
 C          7.6421641642       -0.1925882558        2.3964981363
 C          7.0216990648       -0.5159702935        1.1977394010
 C          7.8685648454       -0.8544549033       -0.0126329150
 C          8.7594645956        0.3551776935       -0.3490432399
 C          8.7389392911       -2.0785911899        0.3261242920
 C          7.0194268915       -1.1793724292       -1.2247896897
 C          7.6355223491       -1.5088151075       -2.4239583748
 C          6.9112623037       -1.7960806136       -3.5662132678
 C          5.5287005678       -1.7410003158       -3.5236654333
 C          4.8905755391       -1.4175478499       -2.3461078976
 C          5.6200437978       -1.1494731925       -1.1817697185
 C          2.8063677739        0.2917310066       -0.0139382422
 C          1.4039004955        0.2677481251       -0.0057202561
 C          0.6930413821        1.5080859341        0.0114961800
 N          1.3347438556        2.6653617537        0.0116450566
 C          0.6857582027        3.8315121442        0.0380665265
 C          1.3479293245        5.0576077920        0.0421421378
 C          0.6392342078        6.2451784607        0.0641435022
 C         -0.7482431915        6.2350071582        0.0825303371
 C         -1.4392506064        5.0369051747        0.0819283452
 C         -0.7588556082        3.8210687129        0.0621830754
 N         -1.3909474796        2.6454134185        0.0648886833
 C         -0.7327587571        1.4979208078        0.0386497859
 C         -1.4268920920        0.2483077925        0.0281876923
 C         -2.8294276211        0.2536976557        0.0413537760
 C         -5.6158765132       -0.6399269013       -1.1805541273
 C         -4.9133821631       -0.6851696330       -2.3861264550
 C         -5.5733572572       -0.5236690464       -3.5866715530
 C         -6.9437858399       -0.3346452493       -3.6003525199
 C         -7.6411373176       -0.2723361158       -2.4050749420
 C         -6.9986504855       -0.4035163603       -1.1851487079
 H         -7.8323919303        1.4436739009        1.5662252774
 H         -6.3109975193        1.4086690549        0.6727983614
 H         -7.7855543429        1.9570295591       -0.1285789877
 H         -9.4701567069       -1.3699460786       -0.2536729635
 H         -9.6661432405       -0.1548346137        1.0198018166
 H         -9.6223283775        0.3488378276       -0.6502460059
 H         -8.8339685753       -1.5582443378        2.2825690949
 H         -7.6985044212       -2.7765650543        4.0583863559
 H         -5.2291867726       -2.9666818942        4.0428695752
 H         -3.9466492097       -2.0487124611        2.1724202179
 H         -3.4158096820       -3.0646896124       -0.0971872019
 H         -0.9848843475       -3.1190519175       -0.0965303445
 H          1.0037130101       -3.1080129137        0.0126634902
 H          3.4355488346       -3.0216857326        0.0128541630
 H          3.8190698040       -0.2954486844        2.2977809437
 H          4.9582376794        0.2706628750        4.3833472869
 H          7.4363651580        0.3499364927        4.4546290657
 H          8.7200436334       -0.1685053535        2.4462124945
 H          9.3973978045        0.1408653144       -1.2016217908
 H          9.3933069595        0.6154446381        0.4937520916
 H          8.1387538246        1.2153397505       -0.5917171023
 H          9.3670854498       -2.3522310798       -0.5168215426
 H          9.3812196668       -1.8740561229        1.1779215815
 H          8.1037683704       -2.9276655628        0.5711846613
 H          8.7130242629       -1.5427690356       -2.4750420827
 H          7.4222607629       -2.0521991410       -4.4813602166
 H          4.9451654351       -1.9472505854       -4.4082786829
 H          3.8137869708       -1.3644997638       -2.3219248617
 H          3.3048720361        1.2485323481       -0.0170523243
 H          2.4268854827        5.0523243035        0.0275804527
 H          1.1721788005        7.1838734514        0.0659446262
 H         -1.2949818955        7.1655632189        0.0987840366
 H         -2.5180248782        5.0151109351        0.0964135982
 H         -3.3384985962        1.2044915536        0.0663792880
 H         -3.8483284740       -0.8564251872       -2.3768033333
 H         -5.0169106922       -0.5579473038       -4.5112367356
 H         -7.4702175001       -0.2227320206       -4.5359132301
 H         -8.7050319576       -0.1056904689       -2.4412814328
  92
  -137.604896110200       1.017127890870391E-002 !
 C         -7.4706359715       -2.8084721590       -0.8781683073
 C         -7.7238335045       -1.4251350102       -0.2371077439
 C         -9.2341227174       -1.2274833347       -0.1010449574
 C         -7.0767006585       -0.3979521533       -1.1457610990
 C         -7.7802657430        0.2876901245       -2.1223847245
 C         -7.1374284456        1.0778584910       -3.0604877333
 C         -5.7568999738        1.1584818138       -3.0524664295
 C         -5.0341322136        0.5103571056       -2.0722555520
 C         -5.6822690101       -0.2341283889       -1.0849605145
 N         -4.9723676921       -0.8220034576       -0.0479369276
 C         -3.5548423542       -0.8286266545       -0.0422687738
 C         -2.8876135907       -2.0621235635       -0.0831258595
 C         -1.5174746414       -2.1083790310       -0.0641157889
 C         -0.7373734286       -0.9409382103       -0.0173431170
 C          0.7007568044       -0.9553609755       -0.0113777958
 C          1.4553121653       -2.1403795972       -0.0052401867
 C          2.8264315696       -2.1255272578        0.0020044359
 C          3.5167158531       -0.9044113379       -0.0087532547
 N          4.9372605832       -0.8949534251       -0.0143742910
 C          5.6169014571       -0.5314303062        1.1344647165
 C          4.9005040325       -0.1972751522        2.2896919943
 C          5.5513567254        0.1770755206        3.4448878159
 C          6.9346833225        0.2180731693        3.4753272990
 C          7.6462033549       -0.1352603066        2.3440403348
 C          7.0170401380       -0.5168597960        1.1670476372
 C          7.8565173918       -0.9227234066       -0.0274882737
 C          8.7541823460        0.2619528391       -0.4297234638
 C          8.7202776782       -2.1338578613        0.3700352403
 C          6.9997023525       -1.3017167585       -1.2181720676
 C          7.6091185059       -1.6946784750       -2.4016125072
 C          6.8792474071       -2.0242636259       -3.5286112515
 C          5.4979179424       -1.9440911229       -3.4879392815
 C          4.8664299239       -1.5592181461       -2.3253865022
 C          5.6008389694       -1.2538821164       -1.1732379746
 C          2.8116942856        0.2749839021       -0.0130404547
 C          1.4093937892        0.2731362878       -0.0046352293
 C          0.7195792309        1.5250553838        0.0201942949
 N          1.3805546508        2.6715851849        0.0270844429
 C          0.7511741707        3.8481113284        0.0615841715
 C          1.4336865447        5.0628974026        0.0744504387
 C          0.7447728391        6.2619765984        0.1032771088
 C         -0.6426759586        6.2747598135        0.1198178119
 C         -1.3536846991        5.0883191398        0.1105383868
 C         -0.6935545611        3.8615666684        0.0845107035
 N         -1.3450097151        2.6965446641        0.0799808776
 C         -0.7058175199        1.5384524244        0.0479751173
 C         -1.4207608499        0.3004325188        0.0225041176
 C         -2.8225195062        0.3332216733        0.0270617571
 C         -5.6304996843       -1.1935537347        1.1155525977
 C         -4.9213534918       -1.3028870200        2.3135468564
 C         -5.5716964867       -1.6256575066        3.4863123719
 C         -6.9410616114       -1.8220058733        3.4834837851
 C         -7.6471852622       -1.7167120793        2.2968022776
 C         -7.0146402490       -1.4177716961        1.1010200009
 H         -7.9375783093       -2.8564885298       -1.8596134006
 H         -6.4045025563       -2.9864190617       -0.9954972831
 H         -7.8858656888       -3.5934911846       -0.2496589686
 H         -9.4594688633       -0.2622628666        0.3466195336
 H         -9.7137752273       -1.2900104792       -1.0736019074
 H         -9.6650036446       -2.0132627771        0.5128706843
 H         -8.8529873922        0.2032440290       -2.1758506290
 H         -7.7126185337        1.6011843972       -3.8087690335
 H         -5.2376802797        1.7331366956       -3.8045374412
 H         -3.9588151691        0.5816820497       -2.0739136946
 H         -3.4672129937       -2.9725467621       -0.1235639274
 H         -1.0386267083       -3.0736792893       -0.0968666709
 H          0.9550074209       -3.0952326533        0.0046531093
 H          3.3878010023       -3.0479778547        0.0127107283
 H          3.8230956747       -0.2350069073        2.2768077489
 H          4.9765635599        0.4353641855        4.3213858023
 H          7.4556268726        0.5146512767        4.3725533859
 H          8.7244300690       -0.1124849154        2.3856016746
 H          9.3854890548        0.0005153104       -1.2740666757
 H          9.3948073376        0.5606425169        0.3949526536
 H          8.1376390361        1.1130815372       -0.7120982004
 H          9.3460049649       -2.4524237470       -0.4587467328
 H          9.3647785712       -1.8910502665        1.2099835039
 H          8.0805331865       -2.9661176557        0.6575500601
 H          8.6860483809       -1.7448615700       -2.4524143939
 H          7.3850570544       -2.3288925225       -4.4317993219
 H          4.9100073433       -2.1772474060       -4.3628577677
 H          3.7907803744       -1.4860603830       -2.3048663233
 H          3.3248503171        1.2240251258       -0.0155093829
 H          2.5124492511        5.0395631100        0.0617545889
 H          1.2933843162        7.1915617217        0.1121428043
 H         -1.1739200575        7.2141795593        0.1405921848
 H         -2.4327194913        5.0843220345        0.1227154133
 H         -3.3102913424        1.2933067301        0.0925779429
 H         -3.8577958855       -1.1225860458        2.3218765545
 H         -5.0084505073       -1.7123484157        4.4032487869
 H         -7.4602065644       -2.0646475663        4.3979992888
 H         -8.7113057903       -1.8846241632        2.3189875012
  92
  -137.604863410300       9.825343212561408E-003 !
 C         -9.2022423882       -0.3826601026        0.0366244818
 C         -7.6869540098       -0.2234725121        0.1659923385
 C         -7.3933788813        1.1697774541        0.7674540029
 C         -6.9784140240       -0.2873081672       -1.1713172695
 C         -7.6035729734       -0.0068355597       -2.3754189209
 C         -6.8944806673        0.0515671336       -3.5636417267
 C         -5.5289071672       -0.1700703625       -3.5591401436
 C         -4.8863090062       -0.4760504136       -2.3776744801
 C         -5.5995810504       -0.5441994596       -1.1791043417
 N         -4.9544478968       -0.9124976472       -0.0082553414
 C         -3.5364870685       -0.9588019158       -0.0046109086
 C         -2.8442585935       -2.1752594718       -0.1101177864
 C         -1.4730620706       -2.1886634312       -0.1012999233
 C         -0.7195590889       -1.0066324793       -0.0067644037
 C          0.7184096195       -0.9915319006        0.0006280024
 C          1.4972824514       -2.1607001129        0.0116164890
 C          2.8677523706       -2.1171519477        0.0151686084
 C          3.5328314085       -0.8819860472       -0.0077075788
 N          4.9522273082       -0.8431488334       -0.0248713422
 C          5.6336201984       -0.4228825147        1.1040626425
 C          4.9209726015       -0.0686848222        2.2556595457
 C          5.5732649130        0.3654104523        3.3889708354
 C          6.9550757771        0.4471356238        3.4015277282
 C          7.6639693815        0.0710288326        2.2760154914
 C          7.0331613913       -0.3712637889        1.1212676753
 C          7.8717609741       -0.8015802358       -0.0651809162
 C          8.7348722327        0.3889991457       -0.5220771948
 C          8.7697623434       -1.9741437309        0.3702517124
 C          7.0140379595       -1.2472623132       -1.2317383502
 C          7.6232913458       -1.6728432243       -2.4040364267
 C          6.8928170792       -2.0605984165       -3.5119135023
 C          5.5104977746       -2.0051191127       -3.4639805731
 C          4.8794003542       -1.5894522817       -2.3118264615
 C          5.6148414476       -1.2284756798       -1.1764223562
 C          2.8028812734        0.2824156930       -0.0107989729
 C          1.4011079407        0.2513322657        0.0084125851
 C          0.6850380080        1.4879757155        0.0521602038
 N          1.3221204603        2.6477610819        0.0634491093
 C          0.6693108062        3.8100109052        0.1319544575
 C          1.3270139278        5.0383379901        0.1505568810
 C          0.6147819503        6.2218878192        0.2220856521
 C         -0.7716553386        6.2049739575        0.2773321058
 C         -1.4582194763        5.0043098843        0.2613546614
 C         -0.7742649751        3.7923572032        0.1907318377
 N         -1.4018028378        2.6143255539        0.1746759953
 C         -0.7399173359        1.4708362899        0.1037113804
 C         -1.4288442279        0.2188964207        0.0615649865
 C         -2.8308980910        0.2177267355        0.0710149111
 C         -5.6792306974       -1.4431290567        1.0462509456
 C         -5.0470190359       -2.1783676925        2.0510330071
 C         -5.7840444991       -2.7823393427        3.0487922348
 C         -7.1620375233       -2.6650010877        3.0564851220
 C         -7.7872686526       -1.8833893885        2.0987580681
 C         -7.0687210936       -1.2417219969        1.1037681253
 H         -9.6115646366        0.3985675330       -0.5974530950
 H         -9.4558548402       -1.3527115875       -0.3850442884
 H         -9.6780087038       -0.2807763893        1.0078156825
 H         -7.8567084705        1.2586625985        1.7477893211
 H         -6.3225287526        1.3212972877        0.8776611592
 H         -7.7878728624        1.9476343868        0.1171604509
 H         -8.6637140562        0.1839212859       -2.4033586685
 H         -7.4078625044        0.2798207653       -4.4851014592
 H         -4.9629235929       -0.1156419155       -4.4768246675
 H         -3.8252961535       -0.6711836158       -2.3784794769
 H         -3.4020177446       -3.0946563733       -0.2104515747
 H         -0.9713658838       -3.1390251943       -0.1891220073
 H          1.0168758100       -3.1256519289        0.0321821034
 H          3.4480968144       -3.0277558661        0.0314143622
 H          3.8450996263       -0.1380650856        2.2581407022
 H          5.0006559392        0.6378269341        4.2626402916
 H          7.4769977122        0.7911795777        4.2810993348
 H          8.7415800703        0.1240138053        2.3042958570
 H          9.3795483266        0.7315661867        0.2822096005
 H          8.0939134698        1.2147935299       -0.8249775137
 H          9.3604607933        0.1127569178       -1.3660630092
 H          8.1538186926       -2.8119533299        0.6920747420
 H          9.3987925532       -2.3057507882       -0.4509654017
 H          9.4126096251       -1.6838602745        1.1964588183
 H          8.7006860352       -1.7024447785       -2.4611827853
 H          7.3984877093       -2.3905496862       -4.4062597508
 H          4.9212220530       -2.2832481757       -4.3247253825
 H          3.8027890552       -1.5347845748       -2.2877442539
 H          3.2957605580        1.2421360719       -0.0186175291
 H          2.4053716139        5.0377046337        0.1097491014
 H          1.1442317351        7.1624679226        0.2351499815
 H         -1.3212372764        7.1323613762        0.3330494246
 H         -2.5362905746        4.9777046060        0.3014332301
 H         -3.3443796562        1.1649183821        0.1268247052
 H         -3.9730363386       -2.2737831683        2.0514326955
 H         -5.2791612501       -3.3509651509        3.8151790626
 H         -7.7486704241       -3.1530845025        3.8195392332
 H         -8.8574868430       -1.7704312626        2.1516610473
