130
 energy: -199.173416986180 gnorm: 0.000077266628 xtb: 6.7.1 (edcfbbe)
C           14.85068389027639        3.14262482110452        0.14288072896170
C           13.67374777913576        3.39286922611354       -0.54491057858614
C           12.68442188531200        2.43099633226510       -0.61283181022772
C           12.85742604495907        1.19895485885701        0.01937378112430
N           11.85681598912062        0.22192322221854       -0.04345210906894
C           12.20749578769295       -1.12902754010933       -0.15450370574924
C           13.29702089419823       -1.51435947803359       -0.93666056656529
C           13.64434548735890       -2.84770545785758       -1.03722330112014
C           12.91144564022223       -3.81651849544307       -0.37009011523858
C           11.82521096977674       -3.43968302580678        0.40382507508467
C           11.47414167707031       -2.10825072606653        0.51673362327932
C           10.51082210900576        0.59399883900593        0.00361814664686
C           10.09294886546768        1.66000757154163        0.80321959944056
C            8.76639470978050        2.03097041991978        0.83773927924556
C            7.80358818050339        1.34861627014651        0.09041846957219
C            6.39513653754105        1.74676150427646        0.12705253911721
C            6.03657567629864        3.09573047046778        0.20063462661765
C            4.71311650896773        3.48446023283926        0.21339083908019
C            3.68387945546288        2.54217286673196        0.16553386814523
N            2.39722045366683        2.88274358914373        0.17544916923261
C            1.43202002904950        1.96910046274236        0.13331780375034
C            0.05762830983525        2.35096260391904        0.13352376102519
C           -0.28114970739991        3.71576744385755        0.16505903448206
C           -1.58679744468321        4.12252568639847        0.15427917812811
C           -2.62360426793483        3.17371487121954        0.11931609733261
C           -4.02876057185062        3.59211289106250        0.10348204414220
C           -4.44276179133324        4.69687569788877       -0.64215243051308
C           -5.76878041813292        5.07066301548384       -0.68738133118529
C           -6.73142372521576        4.35726145189298        0.02999912113539
N           -8.07824354012385        4.72392565109674       -0.02162200567211
C           -8.43560423591029        6.07541913208491       -0.10558954595416
C           -9.51201784002807        6.47406464232516       -0.89879059727550
C           -9.86396120686256        7.80789886059866       -0.97434594780337
C           -9.14865829083299        8.76380037927916       -0.27053421982522
C           -8.07619418691105        8.37350278073523        0.51576579397684
C           -7.72087594123185        7.04131345095967        0.60369820669134
C           -9.07389381300451        3.73956337353150        0.00340635448095
C           -8.88431322017689        2.52319749399865       -0.65392542742357
C           -9.86650771211274        1.55229899643290       -0.61873824425210
C          -11.05385802251121        1.77900627164075        0.05912545171563
C          -11.25049141185471        2.98803699076273        0.70730490762253
C          -10.27020239243826        3.96142658050609        0.68654301974147
C           -6.32035295906293        3.26519664068933        0.79735974111547
C           -4.99537708698326        2.88811396727465        0.82409328972179
C           -2.29527273111766        1.82937033385581        0.09151849334715
C           -0.97124092273704        1.37897049895252        0.09483724222936
C           -0.61982567323042       -0.02227285268588        0.05757008944673
C           -1.57585843053372       -1.04325989442209        0.02790508265012
C           -1.23132977244535       -2.38322276936425        0.00647509330929
C           -2.27486296252635       -3.41400190946959       -0.01252519120090
C           -3.42484395136411       -3.25471355481464       -0.78721832476931
C           -4.41583377976349       -4.21233489939896       -0.79699560608225
C           -4.29701968068491       -5.36255976906232       -0.01442878592169
N           -5.31116077321393       -6.32429581052258       -0.00578190384316
C           -4.98811524936905       -7.68362965495266        0.08102022548251
C           -5.78453187713538       -8.55459212897309        0.82550933092397
C           -5.46412335283363       -9.89625588252810        0.90278986209831
C           -4.34544423950944      -10.39000950841991        0.25053992044089
C           -3.54836805989038       -9.52846611655558       -0.48640722218646
C           -3.86498829392901       -8.18677633670616       -0.57682971916446
C           -6.65147135676803       -5.92576887236627       -0.07964449359712
C           -7.08201737445252       -4.76828863109211        0.57029779635455
C           -8.40397231154466       -4.37515405523158        0.48992994923528
C           -9.31851796406611       -5.12979566583321       -0.22759764505041
C           -8.89748237529353       -6.28291929288294       -0.87076908537608
C           -7.57565783627381       -6.67951397319606       -0.80408467572946
C           -3.14767788856863       -5.52979541550250        0.76043537082831
C           -2.15337185482486       -4.57476453464453        0.75208668219532
C            0.12963464975188       -2.73312681215209        0.01202880279121
C            1.09001134534405       -1.75893190409197        0.03135528114541
C            0.74501788481036       -0.39638115034689        0.05613217077500
C            1.78026160733934        0.58811331872888        0.08451647736702
N            3.05829029774425        0.23530956500758        0.06691725726090
C            4.03961947992508        1.14318907815214        0.10095491221653
C            5.38261278509947        0.78785968213250        0.07790394459645
C            8.22824165237313        0.27687076172570       -0.69845643348392
C            9.55488446288551       -0.09172197175990       -0.74897273577683
C           14.04267073349449        0.95379823036748        0.71406447238124
C           15.02940437627221        1.91915636649395        0.76889581735809
H           15.62273932189217        3.89572900540614        0.19097851609438
H           13.52789262633946        4.34143458064495       -1.04088101876888
H           11.77291407704288        2.62368729429225       -1.15962634097517
H           13.86316585203618       -0.76190427358806       -1.46604362597226
H           14.48867092842949       -3.13254744198741       -1.64789555254267
H           13.18465749220356       -4.85774277521256       -0.45278173266062
H           11.25107466930781       -4.18727823160405        0.93152250209840
H           10.63387658990650       -1.81579478033521        1.12942634739125
H           10.81796459002292        2.18913790875294        1.40445778289618
H            8.46314380063241        2.84420306036990        1.48038346282681
H            6.80690635828156        3.85202970031793        0.21723626978434
H            4.44211828816887        4.52887468692124        0.25368931156345
H            0.52653596768241        4.43185516991375        0.19941620545899
H           -1.82630991402018        5.17474948576485        0.19567317493480
H           -3.71863137213141        5.24754227444187       -1.22428118137766
H           -6.07236334924285        5.91315114879349       -1.29152778373470
H          -10.06441764744899        5.73189297394450       -1.45652176333343
H          -10.69755733385587        8.10366716680835       -1.59449343273815
H           -9.42493434590640        9.80554657353896       -0.33438721605427
H           -7.51649560649794        9.11101655875002        1.07238933225142
H           -6.89170017007185        6.73785133695310        1.22607704452256
H           -7.96503646965908        2.34879736890157       -1.19374704811254
H           -9.70651821729859        0.61542352413345       -1.13233494996444
H          -11.82060841853115        1.01928721097725        0.08182683748847
H          -12.17109119886928        3.17208986555958        1.24172177474718
H          -10.42166203639645        4.89823610816605        1.20265934927877
H           -7.04995363971955        2.71828164057390        1.37661237512532
H           -4.69679275162711        2.05173841890190        1.43887691569566
H           -3.10076786243160        1.11467162913675        0.04017623605120
H           -2.62426970136634       -0.79273271897940        0.04772474702685
H           -3.52724575561302       -2.38099647936880       -1.41403524510846
H           -5.29046901151635       -4.07990750582626       -1.41706445959876
H           -6.65096096921799       -8.17060206488487        1.34404428177705
H           -6.08786894027122      -10.55925376266715        1.48454760419159
H           -4.09665268433684      -11.43852812739581        0.31581908128396
H           -2.67728618384021       -9.90522050141142       -1.00251869205990
H           -3.24850894618862       -7.51959927608511       -1.16151849966878
H           -6.37402804939587       -4.18478957186764        1.14058835060180
H           -8.72348007029655       -3.47766375872386        0.99942351407786
H          -10.35167444031077       -4.82171913181775       -0.28542462200115
H           -9.60190124426585       -6.87465001032574       -1.43704246115105
H           -7.24837866121160       -7.57271561506932       -1.31598852953634
H           -3.04669123668467       -6.41055555596679        1.37775593427724
H           -1.28230328545608       -4.71204761993615        1.37575659745937
H            0.41399459977110       -3.77440929304192       -0.02222538924725
H            2.14044612283465       -2.00965310320261        0.02678528926221
H            5.62252975219322       -0.26424420826425        0.04966895087800
H            7.50944250317919       -0.25184884360971       -1.30682656969467
H            9.86472802130357       -0.90975593820877       -1.38296807251209
H           14.18005367627415        0.00527228775594        1.21244986581678
H           15.94107939374840        1.71729141081293        1.31209116800591
