  130
       -199.13922706
 C         14.7917299146        3.0779293908        0.5461653801
 C         13.6655231424        3.3777887723       -0.2026010240
 C         12.6761382413        2.4319438592       -0.3885707758
 C         12.7976554894        1.1665798903        0.1848267278
 N         11.7966932703        0.2039214677        0.0036486659
 C         12.1523171128       -1.1395801734       -0.1690501031
 C         13.2857655842       -1.4795368691       -0.9069436771
 C         13.6391319965       -2.8050622019       -1.0686611909
 C         12.8683233245       -3.8104185602       -0.5082765414
 C         11.7392140408       -3.4782287631        0.2224023729
 C         11.3826066197       -2.1553059775        0.3974413772
 C         10.4538413009        0.5809571432       -0.0003040081
 C         10.0029290587        1.6199712079        0.8160044434
 C          8.6769619840        1.9953008841        0.8038009746
 C          7.7500039543        1.3380281510       -0.0046285807
 C          6.3354241807        1.7253629268       -0.0036189458
 C          5.9786090477        3.0960316540        0.0564297972
 C          4.6753757986        3.4942317931        0.0563301184
 C          3.6421523989        2.5333796839        0.0053400445
 N          2.3608286992        2.9220420309        0.0129086155
 C          1.4301816828        1.9854036966       -0.0260119785
 C          0.0398151410        2.3757277355       -0.0170826267
 C         -0.2936857672        3.7333043539        0.0127684341
 C         -1.6045216737        4.1391570795        0.0174045618
 C         -2.6321583751        3.1894407648       -0.0052257584
 C         -4.0381064893        3.6081492237       -0.0009321339
 C         -4.4586625036        4.7128846856       -0.7408074921
 C         -5.7805170796        5.1025265630       -0.7504701369
 C         -6.7303738720        4.4061170657       -0.0010721854
 N         -8.0691279277        4.7999790410       -0.0054418812
 C         -8.4007742706        6.1584894743       -0.0787843877
 C         -9.5037326057        6.5767526454       -0.8227675367
 C         -9.8310815110        7.9171006318       -0.8883056496
 C         -9.0642229000        8.8603477503       -0.2239178338
 C         -7.9654851740        8.4504948216        0.5134940625
 C         -7.6349690472        7.1115842860        0.5920450425
 C         -9.0841302517        3.8394541715        0.0727643558
 C         -8.9504376520        2.6135266595       -0.5791760151
 C         -9.9517156120        1.6660533968       -0.4929889832
 C        -11.1033810559        1.9257111667        0.2318744599
 C        -11.2447108823        3.1444387366        0.8750206683
 C        -10.2447164793        4.0946130975        0.8028752101
 C         -6.3127738303        3.3073930347        0.7518010699
 C         -4.9920684591        2.9138495324        0.7424112645
 C         -2.3014648208        1.8426295955       -0.0333096149
 C         -0.9771851368        1.4006380451       -0.0386253278
 C         -0.6251905252       -0.0133737864       -0.0707450207
 C         -1.5868853711       -1.0258886089       -0.0654653184
 C         -1.2459114299       -2.3700871064       -0.0941680487
 C         -2.2861782004       -3.4041557606       -0.0676055609
 C         -3.4779796702       -3.2509559843       -0.7752597044
 C         -4.4512313646       -4.2267876111       -0.7513351287
 C         -4.2698665237       -5.3899971181       -0.0015852061
 N         -5.2529142559       -6.3803906715        0.0313709540
 C         -4.8797768867       -7.7292777217        0.0860685714
 C         -5.6029657961       -8.6334235120        0.8632061294
 C         -5.2320210152       -9.9633087505        0.9089450473
 C         -4.1348693194      -10.4113636200        0.1916080182
 C         -3.4106320868       -9.5163138312       -0.5787907444
 C         -3.7785382031       -8.1862534941       -0.6375165944
 C         -6.6074199814       -6.0312385682        0.0166221586
 C         -7.0531013688       -4.8907543368        0.6847522241
 C         -8.3916234509       -4.5502731254        0.6645889052
 C         -9.3074008816       -5.3410445817       -0.0098772704
 C         -8.8710860876       -6.4777035621       -0.6708121129
 C         -7.5333959493       -6.8214464000       -0.6645733058
 C         -3.0818962223       -5.5456806209        0.7145236054
 C         -2.1078545507       -4.5721048369        0.6735382202
 C          0.1072358488       -2.7250712495       -0.1386794795
 C          1.0735811692       -1.7510732229       -0.1411280954
 C          0.7300809744       -0.3965177470       -0.1003681301
 C          1.7755459274        0.6002409254       -0.0767268298
 N          3.0350966483        0.2069151041       -0.0937677077
 C          3.9885757578        1.1502996022       -0.0536551249
 C          5.3443818933        0.7741579961       -0.0611530816
 C          8.2040298041        0.2950913414       -0.8117916151
 C          9.5316537737       -0.0731599952       -0.8197360431
 C         13.9323334868        0.8705546604        0.9396401990
 C         14.9202412164        1.8202513499        1.1125607626
 H         15.5642243696        3.8184854037        0.6863121701
 H         13.5596888715        4.3535321943       -0.6534117150
 H         11.8037984469        2.6643640549       -0.9817198500
 H         13.8833613979       -0.6976354247       -1.3521825788
 H         14.5185479295       -3.0544235988       -1.6439062162
 H         13.1457941175       -4.8451045161       -0.6394036269
 H         11.1355523064       -4.2549573843        0.6683096314
 H         10.5083606426       -1.8983290198        0.9774145406
 H         10.7018521814        2.1250939754        1.4662885841
 H          8.3471238605        2.7875966650        1.4596718495
 H          6.7673411099        3.8339716240        0.0792811237
 H          4.3995335160        4.5369583236        0.0929229123
 H          0.5139312917        4.4481172884        0.0348624325
 H         -1.8486239892        5.1901644812        0.0600355795
 H         -3.7439490957        5.2528719135       -1.3440594253
 H         -6.0912850157        5.9479924067       -1.3464175566
 H        -10.0975344402        5.8436276343       -1.3488706412
 H        -10.6866622466        8.2276990731       -1.4696432037
 H         -9.3211209968        9.9070643565       -0.2802604118
 H         -7.3651925595        9.1779423428        1.0397887824
 H         -6.7840089622        6.7931787901        1.1762642933
 H         -8.0585567107        2.4132424024       -1.1546929047
 H         -9.8348878678        0.7212928422       -1.0034583802
 H        -11.8851110705        1.1842184938        0.2942827764
 H        -12.1372103552        3.3546723298        1.4457025034
 H        -10.3532070469        5.0399944626        1.3139399672
 H         -7.0334792982        2.7689729341        1.3495584863
 H         -4.6872525189        2.0742152957        1.3498290348
 H         -3.1082361116        1.1288408331       -0.0753521572
 H         -2.6338298133       -0.7746933108       -0.0116227084
 H         -3.6290982870       -2.3696598372       -1.3813631115
 H         -5.3599608660       -4.0996976119       -1.3212672958
 H         -6.4534255816       -8.2841595077        1.4303569309
 H         -5.7992437757      -10.6528251575        1.5164927876
 H         -3.8464643640      -11.4505489961        0.2323195524
 H         -2.5575518593       -9.8576085405       -1.1465055450
 H         -3.2188366118       -7.4914529664       -1.2465805987
 H         -6.3434872340       -4.2792337134        1.2225272802
 H         -8.7225816198       -3.6650959595        1.1877830266
 H        -10.3531378953       -5.0740614365       -0.0199279819
 H         -9.5767248492       -7.0983416838       -1.2030519986
 H         -7.1946842991       -7.7029737788       -1.1888644151
 H         -2.9336615580       -6.4354521421        1.3085657749
 H         -1.2058555223       -4.7024771344        1.2528452392
 H          0.3854198726       -3.7672462858       -0.1881333237
 H          2.1221740764       -2.0021711731       -0.1730618963
 H          5.5764779430       -0.2795015809       -0.0866927514
 H          7.5093946593       -0.2108476659       -1.4656572202
 H          9.8684983799       -0.8689741589       -1.4676060703
 H         14.0296440765       -0.1063552257        1.3901460949
 H         15.7923028249        1.5790354311        1.7022316916
