130
 energy: -199.173426431811 gnorm: 0.000054186531 xtb: 6.7.1 (edcfbbe)
C           14.84692537968145        3.07591818363570        0.04214897787607
C           13.66217257834023        3.31079141338226       -0.63757443901352
C           12.67307731270293        2.34704579807833       -0.67415961463050
C           12.85440937534069        1.12863375863182       -0.01823708982815
N           11.85376573640257        0.15030137554719       -0.04926427757849
C           12.20114655353073       -1.20303715888683       -0.13575518693924
C           13.28431572715453       -1.60703698666878       -0.91729906293823
C           13.62633645613757       -2.94329719200674       -0.99461107523088
C           12.89452597766189       -3.89666871831913       -0.30441837048452
C           11.81485750529094       -3.50125831272319        0.46942791399234
C           11.46912226787228       -2.16671608541327        0.55913873676087
C           10.50838630742183        0.52496447111372        0.00053991106383
C           10.09749673961784        1.60336919342028        0.78686185463516
C            8.77222890846862        1.97856478447764        0.82235650844482
C            7.80406039079967        1.28937481165404        0.08810034885519
C            6.39798610435471        1.69542366228579        0.12130802236646
C            6.04750120477036        3.04704851274954        0.18670050669439
C            4.72663397774378        3.44412063282646        0.19526067369603
C            3.69164685892724        2.50803119145047        0.14953338904571
N            2.40733242265277        2.85689624139830        0.15465166644824
C            1.43657610067910        1.94912817578425        0.11259973336036
C            0.06493007735332        2.33997023281686        0.10813281140208
C           -0.26386158682621        3.70717083928170        0.13847561945723
C           -1.56635546620433        4.12315752474361        0.12507821227098
C           -2.61015933736547        3.18198138414103        0.08577644568467
C           -4.01102712435721        3.61402702199925        0.07080117052207
C           -4.41097543239697        4.73487152468262       -0.65865819198677
C           -5.73110180655542        5.12951649880370       -0.69384364359942
C           -6.70217937797922        4.42095296931632        0.01688239420416
N           -8.04221108590523        4.81403061845694       -0.02026017578243
C           -8.37179828171078        6.17427862812490       -0.07002554792873
C           -9.44423306850281        6.61466490423923       -0.84628903972995
C           -9.76844754492009        7.95704811458302       -0.88684551913695
C           -9.02882798182753        8.88037110889678       -0.16492317286234
C           -7.95973759617666        8.44861903389530        0.60412214201718
C           -7.63236157628290        7.10750308120234        0.65750311979266
C           -9.05683702440369        3.84941487268671       -0.01143878141998
C           -8.89231164391436        2.64183019579785       -0.69138150981327
C           -9.89399978107140        1.69058284453522       -0.67331904289912
C          -11.07615270106024        1.92850065325346        0.00973753881582
C          -11.24771190169822        3.12884644698094        0.68081511000357
C          -10.24784420802454        4.08228161676010        0.67739128728029
C           -6.30625848483538        3.30928420750054        0.76359269632584
C           -4.98683993948406        2.91251551613096        0.78149619598581
C           -2.29142789403803        1.83520771559051        0.05762059595376
C           -0.97064688280752        1.37523368604354        0.06702279433448
C           -0.62834017966438       -0.02853405933444        0.03534214209093
C           -1.59085278380873       -1.04352490256542        0.00769340596877
C           -1.25497424274375       -2.38586856148572       -0.00767036207984
C           -2.30384955626838       -3.41112778649749       -0.02435003380137
C           -3.45581837389990       -3.24607040172931       -0.79494039708932
C           -4.45022299637079       -4.20017963845724       -0.80400568774562
C           -4.33281378946498       -5.35309818404295       -0.02520758465160
N           -5.34877005933850       -6.31280007810868       -0.01726585046164
C           -5.02745639634761       -7.67288073395198        0.06608446673586
C           -5.82247154875223       -8.54387074064193        0.81197372450165
C           -5.50326482535740       -9.88599051355071        0.88651100370946
C           -4.38722556631091      -10.38010919155690        0.23002601359129
C           -3.59180492949036       -9.51859473333746       -0.50874213470047
C           -3.90726120789733       -8.17644563884942       -0.59640060367215
C           -6.68860678093247       -5.91248927843728       -0.08862244974266
C           -7.11687611580887       -4.75528763849631        0.56331106947337
C           -8.43850724939000       -4.36058714180487        0.48532366811310
C           -9.35498081474273       -5.11336200864270       -0.23170649491324
C           -8.93622848832314       -6.26629156885932       -0.87671041527326
C           -7.61476538916567       -6.66444928007951       -0.81241715654807
C           -3.18205238218170       -5.52568661397074        0.74639754528772
C           -2.18474424782528       -4.57392326365650        0.73774859073712
C            0.10384016962447       -2.74427787317190        0.00185660402203
C            1.07037374959175       -1.77630634026902        0.02063949037000
C            0.73411416168323       -0.41153195233902        0.03979468102919
C            1.77598651232577        0.56590729453959        0.06892812506699
N            3.05172437140813        0.20473072630675        0.05766585121500
C            4.03868922879453        1.10659149940848        0.09203061822938
C            5.37940407216220        0.74268359276417        0.07507690290300
C            8.22189923651930        0.20426276273342       -0.68619447331047
C            9.54697515898638       -0.16979511685172       -0.73643438674727
C           14.04749348319294        0.89898571750767        0.66820282795477
C           15.03385508846766        1.86599876015268        0.69167066245582
H           15.61877136094805        3.83039501095475        0.06562751196655
H           13.50980133174740        4.24870046883230       -1.15151353605831
H           11.75517218245052        2.52764468225506       -1.21434507548789
H           13.84947321733942       -0.86700577070894       -1.46491606640753
H           14.46552121582425       -3.24275813856762       -1.60535835063947
H           13.16342172578286       -4.94027583933881       -0.36927751272740
H           11.24157888857181       -4.23657042881898        1.01501024999878
H           10.63402978581819       -1.85950934525104        1.17167926841460
H           10.82715215724566        2.13904729904611        1.37659436558259
H            8.47448495352316        2.80127737750963        1.45536062165286
H            6.82222465839671        3.79885032286359        0.20011658519110
H            4.46211263927456        4.49038349868851        0.22998406183733
H            0.54894469053400        4.41730154723045        0.17519977330641
H           -1.79797413404070        5.17704204883818        0.16784955943347
H           -3.68069574484938        5.28315596864397       -1.23527001081032
H           -6.02362154301247        5.98606672864219       -1.28354919854783
H          -10.01585263501247        5.89832654809130       -1.41822601353430
H          -10.59948576152898        8.28521839467754       -1.49397330132200
H           -9.28367130039067        9.92888590077097       -0.20122221398757
H           -7.38084001201203        9.16029194717132        1.17456895342405
H           -6.80598029935625        6.77161096543705        1.26681636507901
H           -7.97727780583843        2.45896731600681       -1.23558687812641
H           -9.75343246806912        0.76050663500248       -1.20465506593736
H          -11.85835935444589        1.18441546667567        0.01849889664047
H          -12.16395209920504        3.32148367979205        1.21969906402898
H          -10.37988766353826        5.01197903671286        1.21137380818164
H           -7.04270924227513        2.76398943314961        1.33566733948158
H           -4.69974200512698        2.06241751462065        1.38274607533605
H           -3.10155326308122        1.12608459947313        0.00201104132249
H           -2.63758871312687       -0.78588331089789        0.02482503236986
H           -3.55722293987917       -2.37081581966380       -1.41973723127233
H           -5.32622188308805       -4.06304466472997       -1.42111433605519
H           -6.68673236669748       -8.15951801390012        1.33385141322950
H           -6.12580576832341      -10.54905750019566        1.46947205506196
H           -4.13928556055320      -11.42895374339209        0.29328906605038
H           -2.72294193188405       -9.89566515530217       -1.02834940391784
H           -3.29203377130073       -7.50916727956674       -1.18229672590424
H           -6.40740633546619       -4.17325134396977        1.13325754074702
H           -8.75624161532318       -3.46327537930218        0.99623020441599
H          -10.38784529068425       -4.80397610392159       -0.28772523289975
H           -9.64216397599069       -6.85666005676841       -1.44251167715191
H           -7.28928452850214       -7.55748847618950       -1.32574334171176
H           -3.08214336794965       -6.40832283407678        1.36120429834124
H           -1.31281142308074       -4.71578983029240        1.35914268013830
H            0.38192297357413       -3.78734987304444       -0.02841601457413
H            2.11916702385800       -2.03386523603320        0.02012744416828
H            5.61226057176027       -0.31112485438555        0.05304123724928
H            7.49916435700186       -0.33093366715188       -1.28407912696981
H            9.85163915213924       -0.99839704853504       -1.35909409643428
H           14.19111501625694       -0.03879294433491        1.18479598834559
H           15.95174884048202        1.67636232584086        1.22874480861844
