130
 energy: -199.223409461321 gnorm: 0.000048807114 xtb: 6.7.1 (edcfbbe)
C           14.84666107578472        3.13170763224599        0.34608235353708
C           13.68604151674424        3.41526373118947       -0.35584011835565
C           12.69473965039462        2.46128067746876       -0.48439339530231
C           12.84816469451395        1.20489980888783        0.10175686086273
N           11.84719677589190        0.23194177025230       -0.02548063098732
C           12.20766712219689       -1.11163718110793       -0.20380156938589
C           13.29688032121016       -1.44959923997723       -1.00639051534148
C           13.65272894345830       -2.77412792705745       -1.17481835248957
C           12.92780184547190       -3.77980766134578       -0.55576803330186
C           11.84299310926641       -3.44924013223848        0.24053535634643
C           11.48486691235855       -2.12703959634041        0.42202704131063
C           10.50177862492894        0.59615912577248        0.01130197329894
C           10.06514732076285        1.63829810295055        0.83240807711436
C            8.73628502140945        2.00325594642864        0.85558029956428
C            7.79075765184729        1.33383986013214        0.07775955887385
C            6.37511657554823        1.71664273480572        0.10750205532700
C            6.01489229722303        3.08609837823516        0.18475808570948
C            4.71083586632760        3.48234677450373        0.20020208244058
C            3.67798331669354        2.52110784923218        0.14567176901164
N            2.39483967034936        2.90861799296455        0.15432107622064
C            1.46359157404975        1.97101482656771        0.10776356103178
C            0.07355852859838        2.36179716529249        0.10519183350471
C           -0.26569557776121        3.71880505307352        0.13931200937605
C           -1.57787008399702        4.12204964705935        0.12877982404972
C           -2.60356126474217        3.17039475178414        0.08613660254993
C           -4.01324653697451        3.57838914482095        0.07316423347167
C           -4.43663749583959        4.67867418110881       -0.67226953504682
C           -5.76500061719312        5.04578171406937       -0.70899394704267
C           -6.71938679560122        4.33139174828811        0.01821408215981
N           -8.06651718150770        4.69487127785393       -0.02100894366670
C           -8.42889026592297        6.04581916140231       -0.11188246661415
C           -9.51085511514437        6.43542361068038       -0.90110578165569
C           -9.87016795962648        7.76721022198966       -0.98140314176596
C           -9.15558122998643        8.73029006471788       -0.28712697843885
C           -8.07700684068945        8.34899012639252        0.49483498547147
C           -7.71550957276222        7.01865280826424        0.58825790932842
C           -9.06266471800211        3.71034251118199        0.02615013670122
C           -8.88654282355416        2.49151142685958       -0.62930283162753
C           -9.86969285753005        1.52222289982909       -0.57427899325822
C          -11.04581519621077        1.75382881540936        0.12086501585631
C          -11.22931765127828        2.96565172982097        0.76722833079666
C          -10.24696143940293        3.93660331876296        0.72751640143947
C           -6.29735517586769        3.24231174128597        0.78357124758905
C           -4.97052489270442        2.87015999319296        0.80038672317458
C           -2.26705349400138        1.82459145729122        0.05287337323465
C           -0.94200865053272        1.38532449520962        0.06284814677836
C           -0.58844473543125       -0.02856159546253        0.02976214070830
C           -1.55101466479965       -1.03956639077687        0.00904910362984
C           -1.21353551089310       -2.38522325941600       -0.01322022421028
C           -2.26594964120981       -3.40821855850429       -0.02382612845717
C           -3.41952262129492       -3.24119363064345       -0.79036843967071
C           -4.41652699099956       -4.19274609217787       -0.79297502591955
C           -4.30157677193691       -5.34277024947820       -0.00948458196663
N           -5.32147064740583       -6.29643462082082        0.00717780587006
C           -5.01026354144583       -7.65884599785696        0.10609270651874
C           -5.81204667212299       -8.51451816804402        0.86153097431188
C           -5.50601749474162       -9.85909430393587        0.94908555741488
C           -4.39532445102901      -10.37052855668497        0.29724589022330
C           -3.59271299035429       -9.52403606519128       -0.45064586693000
C           -3.89612648605627       -8.17989795873651       -0.55211518374724
C           -6.66030891270778       -5.89033944173087       -0.07435475461441
C           -7.08876010330608       -4.73152510893129        0.57355843386828
C           -8.40829612677030       -4.33128685862348        0.48595888186173
C           -9.32275751928380       -5.08120300598526       -0.23624433286569
C           -8.90397873006482       -6.23653646865731       -0.87649319725205
C           -7.58416506330245       -6.63925592890292       -0.80315670122512
C           -3.14823373157718       -5.51587405405067        0.75815649454701
C           -2.14693214962197       -4.56823342586780        0.74132401686189
C            0.13954921895920       -2.74316852984197       -0.01681550387121
C            1.10763087573234       -1.76988415244171       -0.00007480572698
C            0.76724759790500       -0.41317865554456        0.02615576977015
C            1.81090947816135        0.58519115217593        0.05651628503864
N            3.07232059364035        0.19392462248256        0.03740668396817
C            4.02644918230305        1.13940559003064        0.07668752177506
C            5.38245715060826        0.76519575641358        0.05472560530508
C            8.23045550038442        0.28602523855496       -0.73244365178905
C            9.55992950984433       -0.07325330816567       -0.77391096217672
C           14.01634337700932        0.92611087405174        0.81101496202597
C           15.00639958461484        1.88320431468392        0.92554960280940
H           15.62085108173405        3.87830738003357        0.44092436310795
H           13.55503785532320        4.38368279538795       -0.81662209272803
H           11.79651731206129        2.68079200219632       -1.04313989847282
H           13.85809436121711       -0.66742372064953       -1.49675387662223
H           14.49726902654708       -3.02253237452774       -1.80106967993220
H           13.20645111486504       -4.81396809383065       -0.69256987432767
H           11.27565629066956       -4.22618478356825        0.73219923116503
H           10.64459346718423       -1.87101945024007        1.05102195806938
H           10.77783261902213        2.15602305431918        1.45753518843617
H            8.42011140306922        2.79752746480718        1.51563801150564
H            6.80041779166961        3.82689838477383        0.20740311363069
H            4.43442749864740        4.52490690917890        0.24829357794577
H            0.53894046736419        4.43697418282881        0.17621718181757
H           -1.82264626340374        5.17276174605030        0.17260919651749
H           -3.71936988577806        5.23149599024483       -1.26092932942609
H           -6.07652410789551        5.88650248518801       -1.31153506580956
H          -10.06443351486604        5.68729738252375       -1.44988456984891
H          -10.70950907188301        8.05541635071448       -1.59759220260134
H           -9.43738107913967        9.77040604055254       -0.35473299687668
H           -7.51739827596294        9.09211575693027        1.04428645661352
H           -6.88063520908969        6.72277117716144        1.20686186710334
H           -7.97599076789510        2.31247543330298       -1.18246535070219
H           -9.71956583632893        0.58285324013264       -1.08660042957591
H          -11.81387292042658        0.99588292954004        0.15841095483699
H          -12.14119120756720        3.15417844282926        1.31516237112675
H          -10.38926828555807        4.87652033791506        1.24086069189901
H           -7.02027436431683        2.69198983238868        1.36793933544646
H           -4.66448441041510        2.03600732441713        1.41470817690598
H           -3.07052322398273        1.10859392211201       -0.00424906595928
H           -2.59824697223242       -0.78626102014296        0.03481370768789
H           -3.52087337789442       -2.36826694265963       -1.41858439729735
H           -5.29467852423140       -4.05418441998022       -1.40666701630690
H           -6.67352614053111       -8.11708976643346        1.37842024374122
H           -6.13497890406830      -10.51034161331165        1.53867854652442
H           -4.15741875046603      -11.42110165699408        0.37080046630297
H           -2.72768035001387       -9.91452537551028       -0.96695731439755
H           -3.27459766324555       -7.52453222059286       -1.14494942451983
H           -6.38070912142402       -4.15076574881325        1.14678764599089
H           -8.72592446276694       -3.43183139224735        0.99343089501726
H          -10.35409069415531       -4.76789032491830       -0.29974665434836
H           -9.60846933635131       -6.82541751776942       -1.44586162917496
H           -7.25900682993256       -7.53549099442927       -1.31134031652115
H           -3.04852796719236       -6.39686797762602        1.37530892651602
H           -1.27305787601835       -4.71099396855242        1.35986256018733
H            0.41840802139746       -3.78571350857588       -0.05159165448294
H            2.15637008748547       -2.02417856000141       -0.00704277295594
H            5.61359915029607       -0.28859905057076        0.01814613250972
H            7.52260181146201       -0.23015837081575       -1.36401557693614
H            9.88277978343891       -0.87319372123597       -1.42401338120791
H           14.14003117810853       -0.04362935541666        1.27093438411463
H           15.90581767829937        1.65433744762164        1.47860258547526
