  52
  -80.3502818000000       0.154915693330197      !
 C         -0.0028939251       -2.2247140912        2.2931973223
 C          1.1995176718       -1.7394636681        1.8129415353
 C          1.2045414247       -0.7577434843        0.8248683405
 N          2.4184258348       -0.2786044246        0.3172115582
 C          2.7774499975        1.0480959739        0.1840591697
 C          2.0919060347        2.1923360278        0.5636257960
 C          2.6959962627        3.4142038837        0.3392724989
 C          3.9601251047        3.5040379662       -0.2391177586
 C          4.6602094910        2.3681249120       -0.5936273934
 C          4.0718764562        1.1288508658       -0.3783953803
 C          4.5067339126       -0.2223678727       -0.5962732214
 C          5.6624806221       -0.7790059132       -1.1281365677
 C          5.7541811295       -2.1535970331       -1.2169373521
 C          4.7059791116       -2.9696255361       -0.7974770108
 C          3.5461745417       -2.4391599986       -0.2655442466
 C          3.4580973637       -1.0592189173       -0.1506101314
 C          0.0015616833       -0.2689424672        0.3280614639
 C         -1.2038636114       -0.7557331470        0.8210278780
 N         -2.4157752854       -0.2755912916        0.3100364644
 C         -2.7729626488        1.0513852812        0.1728603314
 C         -2.0833193966        2.1963047286        0.5428714536
 C         -2.6864555502        3.4182453331        0.3158542352
 C         -3.9533652959        3.5075814732       -0.2561115348
 C         -4.6574170776        2.3713072598       -0.6011174393
 C         -4.0702328688        1.1320571882       -0.3829940357
 C         -4.5089621701       -0.2192570964       -0.5927560257
 C         -5.6689103890       -0.7757419183       -1.1151921829
 C         -5.7638551362       -2.1503653874       -1.1976938774
 C         -4.7140507816       -2.9666139414       -0.7825950020
 C         -3.5505078920       -2.4361991952       -0.2593069538
 C         -3.4595354581       -1.0561255711       -0.1491861846
 C         -1.2029901092       -1.7370679067        1.8096165524
 H         -0.0048064877       -2.9804095433        3.0641710469
 H          2.1356610214       -2.1034703006        2.2071122049
 H          1.1230170436        2.1328940005        1.0343032557
 H          2.1784461269        4.3186265526        0.6228314092
 H          4.3980021081        4.4773297625       -0.4013311253
 H          5.6473221722        2.4363852299       -1.0251565514
 H          6.4676205121       -0.1450641575       -1.4677181135
 H          6.6452112040       -2.6071790177       -1.6244337966
 H          4.8000118073       -4.0411737779       -0.8935144941
 H          2.7325991029       -3.0802097785        0.0390827044
 H          0.0036486757        0.4660129800       -0.4622339887
 H         -1.1113873106        2.1379358696        1.0074840871
 H         -2.1652668346        4.3232483086        0.5915394717
 H         -4.3905703297        4.4810142734       -0.4202569955
 H         -5.6465594833        2.4392309822       -1.0277581577
 H         -6.4747060585       -0.1416781646       -1.4526666784
 H         -6.6582362140       -2.6037915287       -1.5975640135
 H         -4.8101833972       -4.0383560056       -0.8744199871
 H         -2.7361887728       -3.0776109375        0.0420979013
 H         -2.1407788349       -2.0993437977        2.2014728369
  52
  -80.3502780600000       0.154303803057012      !
 C         -0.0054221869       -2.2557589521        2.2737381695
 C          1.1974718762       -1.7656211364        1.7994860073
 C          1.2033880106       -0.7697874097        0.8256800672
 N          2.4169317836       -0.2839302759        0.3239555473
 C          2.7727013409        1.0450376921        0.2051169340
 C          2.0858142147        2.1830436821        0.6007259334
 C          2.6861343283        3.4089139588        0.3881286611
 C          3.9475346228        3.5083108982       -0.1944427454
 C          4.6493087648        2.3783527799       -0.5640549399
 C          4.0647526392        1.1352772037       -0.3611513668
 C          4.5012096120       -0.2123599578       -0.5974687253
 C          5.6555248588       -0.7601463566       -1.1415019705
 C          5.7489522799       -2.1330779801       -1.2490599542
 C          4.7037813831       -2.9562101538       -0.8361165424
 C          3.5459163671       -2.4347198329       -0.2913734544
 C          3.4560785140       -1.0567281554       -0.1578399866
 C          0.0006819514       -0.2723762745        0.3366244526
 C         -1.2049482657       -0.7650095472        0.8226494852
 N         -2.4162408071       -0.2785509456        0.3158685594
 C         -3.4520571484       -1.0543462436       -0.1683529109
 C         -3.5366936265       -2.4326300055       -0.3023871156
 C         -4.6911904388       -2.9579835229       -0.8504318910
 C         -5.7379180749       -2.1381595606       -1.2662328917
 C         -5.6494635733       -0.7648374823       -1.1581239615
 C         -4.4986183043       -0.2133055290       -0.6106607088
 C         -4.0663320366        1.1355868226       -0.3739610524
 C         -4.6542736827        2.3768072234       -0.5788867244
 C         -3.9563185753        3.5091321676       -0.2094564401
 C         -2.6950067289        3.4138941056        0.3738520226
 C         -2.0914843700        2.1899633960        0.5888908784
 C         -2.7749552486        1.0493950576        0.1948333961
 C         -1.2051451469       -1.7599118349        1.7975626315
 H         -0.0078798691       -3.0220243660        3.0341949301
 H          2.1332830302       -2.1362891004        2.1882563697
 H          1.1189641579        2.1156110335        1.0742816753
 H          2.1676217080        4.3088243198        0.6839638936
 H          4.3823357271        4.4846848843       -0.3475285338
 H          5.6347165068        2.4541027374       -0.9982009064
 H          6.4578468652       -0.1206197411       -1.4770435313
 H          6.6385897832       -2.5796051134       -1.6672775811
 H          4.7986696771       -4.0261955450       -0.9475016149
 H          2.7344634010       -3.0810054032        0.0076633684
 H          0.0031084893        0.4738166109       -0.4430821382
 H         -2.7238675007       -3.0759787638       -0.0010521699
 H         -4.7821918807       -4.0282779883       -0.9620056476
 H         -6.6246073115       -2.5876235916       -1.6873961522
 H         -6.4529932055       -0.1280413572       -1.4958829074
 H         -5.6393217599        2.4492155718       -1.0144331780
 H         -4.3942598413        4.4839972281       -0.3630242375
 H         -2.1793208617        4.3157225087        0.6689254597
 H         -1.1244941251        2.1262625383        1.0627991137
 H         -2.1433936899       -2.1261666544        2.1846228750
  52
  -80.3502679200000       0.152656959678641      !
 C         -0.0279130704       -2.0144879221        2.4807541274
 C          1.1711553402       -1.4734853957        2.0546887762
 C          1.1919207830       -0.6131849544        0.9596233995
 N          2.3986461496       -0.0394014202        0.5408165855
 C          3.2889418983        0.6370475693        1.3523698432
 C          3.2062949363        0.9267329036        2.7066742722
 C          4.2351635410        1.6533757978        3.2749434332
 C          5.3194919691        2.0931484161        2.5188130241
 C          5.3955862809        1.8280464954        1.1661761597
 C          4.3736055648        1.0990902735        0.5724390342
 C          4.1198030822        0.6707437497       -0.7746909300
 C          4.8191433540        0.8022881621       -1.9671735662
 C          4.2906702844        0.2369226410       -3.1104918354
 C          3.0900095333       -0.4682830370       -3.0712557768
 C          2.3783561758       -0.6137286370       -1.8962875603
 C          2.8891311922       -0.0243748955       -0.7496544809
 C          0.0088482047       -0.3048535445        0.2977580545
 C         -1.1923828762       -0.8560859275        0.7285022580
 N         -2.3883985843       -0.5293713835        0.0779604204
 C         -2.6222458148       -0.5947024222       -1.2813575546
 C         -1.7899355695       -1.0277546914       -2.3027260027
 C         -2.2868336645       -1.0172471349       -3.5917521661
 C         -3.5862640020       -0.5969961573       -3.8658418173
 C         -4.4289576559       -0.1895548650       -2.8510717127
 C         -3.9503817478       -0.1898683770       -1.5475708744
 C         -4.5377605744        0.1421601541       -0.2797920984
 C         -5.7882855621        0.6117873453        0.0996495944
 C         -6.0241415144        0.8589610032        1.4371848390
 C         -5.0268711221        0.6586728121        2.3890641011
 C         -3.7757995259        0.1903717848        2.0360361354
 C         -3.5410622129       -0.0845203496        0.6965117219
 C         -1.2075659055       -1.7161520344        1.8242356613
 H         -0.0413455473       -2.6864780700        3.3257221678
 H          2.0945692386       -1.7216090321        2.5546667137
 H          2.3614117478        0.6067794071        3.2975724775
 H          4.1949680233        1.8895267676        4.3278045561
 H          6.1045115693        2.6564130612        3.0004966105
 H          6.2276916093        2.1821811501        0.5765976745
 H          5.7577868883        1.3343277703       -1.9938445696
 H          4.8165409632        0.3313334719       -4.0488877491
 H          2.7093539684       -0.9153004810       -3.9777072148
 H          1.4602252608       -1.1799749743       -1.8718422046
 H          0.0188228504        0.3890259755       -0.5289001539
 H         -0.7899053082       -1.3770213635       -2.0988622593
 H         -1.6554010747       -1.3468022114       -4.4034206371
 H         -3.9376730359       -0.6009776822       -4.8866496984
 H         -5.4413077417        0.1206498436       -3.0608973329
 H         -6.5548575251        0.7834228822       -0.6405399052
 H         -6.9900491712        1.2228006359        1.7538691379
 H         -5.2348525257        0.8770509958        3.4260557468
 H         -3.0040124967        0.0568955908        2.7790818991
 H         -2.1402318434       -2.1548484395        2.1436047844
  52
  -80.3502498100000       0.149759309492064      !
 C          0.0058573088        0.5286973097        3.1575825892
 C          1.2072624379        0.4123795245        2.4827532188
 C          1.2084824535        0.1604678008        1.1131700780
 N          2.4197404671        0.0518991137        0.4184974227
 C          3.4549047835        0.9660284578        0.4522071602
 C          3.5430214332        2.1777582457        1.1220180702
 C          4.6969791127        2.9209332491        0.9617711754
 C          5.7392910440        2.4804071312        0.1492908359
 C          5.6475303785        1.2869014589       -0.5384229877
 C          4.4978976330        0.5219063772       -0.3927549845
 C          4.0646880172       -0.7265696888       -0.9550542441
 C          4.6494852065       -1.6379916348       -1.8243837748
 C          3.9530384139       -2.7852893628       -2.1478425208
 C          2.6966788701       -3.0383790861       -1.6018646307
 C          2.0957009567       -2.1462535215       -0.7351641552
 C          2.7769538550       -0.9777584109       -0.4290554210
 C          0.0042429733        0.0341107913        0.4299675585
 C         -1.2003003484        0.1479957033        1.1150360737
 N         -2.4139415936        0.0434084995        0.4255669118
 C         -3.4643534700        0.9380607161        0.5121393781
 C         -3.5642563803        2.1199133595        1.2322556042
 C         -4.7333360121        2.8479861555        1.1201870456
 C         -5.7800618880        2.4234651788        0.3050064233
 C         -5.6757368179        1.2634431098       -0.4358510121
 C         -4.5103509119        0.5146258519       -0.3390087599
 C         -4.0622251801       -0.6972362780       -0.9656369633
 C         -4.6424989103       -1.5716706514       -1.8748483235
 C         -3.9295779359       -2.6860903041       -2.2692523322
 C         -2.6614699440       -2.9428887786       -1.7535366939
 C         -2.0656778488       -2.0877771064       -0.8466534247
 C         -2.7632587946       -0.9502162403       -0.4685309088
 C         -1.1953539069        0.3903528819        2.4871388059
 H          0.0058825515        0.7143937007        4.2210701615
 H          2.1447601162        0.4988703449        3.0098815603
 H          2.7339842559        2.5355570597        1.7408973204
 H          4.7913985427        3.8659233977        1.4759690777
 H          6.6256949714        3.0891514375        0.0521195061
 H          6.4480360759        0.9531885320       -1.1811915091
 H          5.6315100934       -1.4515217325       -2.2319723704
 H          4.3888171114       -3.5053792494       -2.8240389227
 H          2.1832466172       -3.9534693514       -1.8574713824
 H          1.1336009877       -2.3621931437       -0.2973272891
 H          0.0060905799       -0.1218737815       -0.6379111432
 H         -2.7524048127        2.4700082004        1.8515644455
 H         -4.8358536669        3.7689587436        1.6747848977
 H         -6.6788586513        3.0188561019        0.2471219474
 H         -6.4786235569        0.9429258921       -1.0822784882
 H         -5.6328189381       -1.3811995605       -2.2598805388
 H         -4.3605968553       -3.3763324319       -2.9788103115
 H         -2.1334021676       -3.8316134991       -2.0659393551
 H         -1.0930373796       -2.3096571236       -0.4369092772
 H         -2.1312279526        0.4537780567        3.0203184927
  52
  -80.3500980000000       0.127534235601783      !
 C          0.1125028135       -1.0262177634        3.0165054893
 C          1.2843651811       -0.8824941833        2.2968309438
 C          1.2353456222       -0.4475980700        0.9745083419
 N          2.4159056243       -0.2926293071        0.2390384357
 C          2.7797106382        0.8310526837       -0.4778029959
 C          2.1167023708        2.0409998384       -0.6244375344
 C          2.7255206548        3.0228673593       -1.3825900096
 C          3.9687484299        2.8179429239       -1.9767060717
 C          4.6441954811        1.6250184663       -1.8146941079
 C          4.0519135550        0.6225324116       -1.0579427718
 C          4.4660748436       -0.6973590074       -0.6719462335
 C          5.5938883624       -1.4612425193       -0.9416474433
 C          5.6695661471       -2.7365397657       -0.4185407611
 C          4.6317307132       -3.2575136978        0.3510344523
 C          3.4997409574       -2.5167559511        0.6328981752
 C          3.4294667751       -1.2249467068        0.1314853372
 C          0.0100823102       -0.1520043468        0.3882794375
 C         -1.1635529632       -0.2916494530        1.1200149424
 N         -2.3950394057        0.0096854788        0.5269384801
 C         -3.3745998953        0.8180342542        1.0703363931
 C         -3.3654322475        1.5463592010        2.2512389168
 C         -4.4798371626        2.3072410218        2.5487539617
 C         -5.5778432640        2.3551002282        1.6928303509
 C         -5.5820801763        1.6528659803        0.5042832107
 C         -4.4732478360        0.8812570702        0.1831407642
 C         -4.1333069489        0.0622384978       -0.9466313675
 C         -4.8030521296       -0.2780528839       -2.1143550750
 C         -4.1844118062       -1.1296619407       -3.0074864722
 C         -2.9212240208       -1.6524112639       -2.7404731215
 C         -2.2349979341       -1.3283623502       -1.5856867175
 C         -2.8411262635       -0.4533708704       -0.6957284676
 C         -1.1099274334       -0.7363457728        2.4387973231
 H          0.1523036264       -1.3677538301        4.0399044357
 H          2.2390503375       -1.0892625644        2.7550198883
 H          1.1622269670        2.2196705905       -0.1529122948
 H          2.2269996001        3.9718416249       -1.5135179004
 H          4.4101763291        3.6097270777       -2.5636399967
 H          5.6151614419        1.4714237847       -2.2603609640
 H          6.3899275090       -1.0630903588       -1.5526054682
 H          6.5391372374       -3.3461156691       -0.6132089438
 H          4.7115759323       -4.2644582702        0.7328327454
 H          2.6935299455       -2.9368507935        1.2153539895
 H         -0.0300851535        0.1880543158       -0.6348722007
 H         -2.5123223698        1.5314053176        2.9124770273
 H         -4.4982198535        2.8800634853        3.4641360393
 H         -6.4313876152        2.9586204524        1.9630030566
 H         -6.4260285479        1.7022482854       -0.1668903700
 H         -5.7887915828        0.1145589714       -2.3126473426
 H         -4.6861391258       -1.4043458223       -3.9233057357
 H         -2.4682850213       -2.3289462903       -3.4500167058
 H         -1.2647008817       -1.7547143015       -1.3813895654
 H         -2.0251747854       -0.8659011427        2.9953412432
  52
  -80.3500882500000       0.126225178561195      !
 C          0.0029017090        2.2030804868        2.3054200871
 C          1.2012771730        1.7960109565        1.7482672866
 C          1.2047802171        0.8289754894        0.7460367828
 N          2.4118024655        0.4068129418        0.1765554919
 C          3.3994120924        1.2310820172       -0.3262355750
 C          3.4218824544        2.6133221111       -0.4440349508
 C          4.5359252588        3.1934843511       -1.0200810804
 C          5.6025134709        2.4233957141       -1.4784150843
 C          5.5751791913        1.0462563010       -1.3857252814
 C          4.4661233014        0.4399655647       -0.8107078903
 C          4.0980933043       -0.9286295683       -0.5775501871
 C          4.7322936218       -2.1413185009       -0.8130635507
 C          4.0939969533       -3.3057695253       -0.4357809288
 C          2.8459628402       -3.2705527432        0.1821134133
 C          2.1949797702       -2.0764679350        0.4267413535
 C          2.8212609492       -0.9041588680        0.0287917247
 C          0.0053909417        0.2741306194        0.3150337540
 C         -1.1955663481        0.6884299905        0.8791050751
 N         -2.4022513237        0.1405120233        0.4285696238
 C         -3.4090547316       -0.3675892845        1.2257487958
 C         -3.4476726528       -0.5333894786        2.6027449634
 C         -4.5808180137       -1.1020411160        3.1524263409
 C         -5.6505937901       -1.5071047515        2.3572577208
 C         -5.6074231218       -1.3676215977        0.9844761296
 C         -4.4790165571       -0.7989737345        0.4086830754
 C         -4.0931931955       -0.5254509994       -0.9474669719
 C         -4.7221522542       -0.7018534919       -2.1728846517
 C         -4.0654120611       -0.2972456028       -3.3177110368
 C         -2.8040100742        0.2898760368       -3.2499467095
 C         -2.1581231213        0.4760855916       -2.0425982198
 C         -2.8033168980        0.0503251280       -0.8904921875
 C         -1.1943509032        1.6591457793        1.8778441953
 H          0.0019256673        2.9541702029        3.0808758916
 H          2.1363569319        2.2093107623        2.0933886717
 H          2.5928474114        3.2179337877       -0.1081007950
 H          4.5786187400        4.2679150557       -1.1205274451
 H          6.4563255175        2.9148629772       -1.9202441192
 H          6.3942960185        0.4482765786       -1.7555289929
 H          5.7065845399       -2.1672129577       -1.2771333603
 H          4.5688358276       -4.2594239634       -0.6112900950
 H          2.3777069003       -4.1968658577        0.4803912805
 H          1.2364665758       -2.0603704947        0.9232302346
 H          0.0067626542       -0.4775279788       -0.4590792033
 H         -2.6166156943       -0.2391238249        3.2259957749
 H         -4.6364779702       -1.2387488045        4.2222543067
 H         -6.5199856683       -1.9438613258        2.8253741748
 H         -6.4296829900       -1.6956009440        0.3667847264
 H         -5.7064264033       -1.1422395727       -2.2233248219
 H         -4.5356529655       -0.4269074585       -4.2809422442
 H         -2.3208362088        0.6109122419       -4.1608504545
 H         -1.1892338186        0.9504105425       -2.0013872666
 H         -2.1305078207        1.9919243179        2.2987508151
  52
  -80.3500680000000       0.123549143231842      !
 C         -0.0020388499       -3.1452008574        0.5896073097
 C          1.1978568000       -2.4599345486        0.5339197708
 C          1.2011313764       -1.0913349622        0.2763793127
 N          2.4076214764       -0.3830460413        0.2292627114
 C          2.6897866612        0.7755358258        0.9262866465
 C          1.9076963533        1.4727210743        1.8355885205
 C          2.4503264918        2.6005148459        2.4210610010
 C          3.7422732445        3.0263480098        2.1207650852
 C          4.5332135914        2.3238681727        1.2339184357
 C          4.0099437920        1.1869900150        0.6324481723
 C          4.5399263779        0.2273808626       -0.2955476790
 C          5.7563464874        0.1057984953       -0.9540626076
 C          5.9353776581       -0.9519476221       -1.8230171302
 C          4.9158856251       -1.8740047002       -2.0490395489
 C          3.6974568792       -1.7750122476       -1.4047724025
 C          3.5198870936       -0.7267675927       -0.5134252806
 C         -0.0002513827       -0.4213028525        0.0780308126
 C         -1.2024767075       -1.1161432193        0.1367297889
 N         -2.4082206609       -0.4372724379       -0.0757800034
 C         -2.6912312200        0.3863800779       -1.1477901678
 C         -1.9109928519        0.7005784482       -2.2510321022
 C         -2.4547622670        1.5352469114       -3.2084462553
 C         -3.7455685850        2.0435542654       -3.0822628234
 C         -4.5343534772        1.7169140683       -1.9975131750
 C         -4.0101737127        0.8792681432       -1.0219259858
 C         -4.5379648081        0.3279389358        0.1948408394
 C         -5.7520802167        0.4593704205        0.8560303592
 C         -5.9296884518       -0.2074162464        2.0519021712
 C         -4.9106214292       -0.9858032565        2.5965910618
 C         -3.6945396299       -1.1331829261        1.9568476345
 C         -3.5185075283       -0.4833215975        0.7437721094
 C         -1.2011657573       -2.4848567693        0.3934853966
 H         -0.0026911868       -4.2061806620        0.7889601844
 H          2.1320457264       -2.9724665758        0.7037938477
 H          0.9119621233        1.1417671001        2.0895104247
 H          1.8601572853        3.1619218557        3.1300661591
 H          4.1292229628        3.9138695902        2.5982525340
 H          5.5400052609        2.6447715001        1.0129288848
 H          6.5404632625        0.8292912500       -0.7907154497
 H          6.8740787092       -1.0655307434       -2.3442763890
 H          5.0799899829       -2.6826239713       -2.7458471493
 H          2.9075831139       -2.4851769982       -1.5990257685
 H          0.0003163208        0.6391459137       -0.1216785866
 H         -0.9162734765        0.2975335188       -2.3681606769
 H         -1.8666518354        1.7957415884       -4.0758041972
 H         -4.1334090252        2.6942089850       -3.8514871192
 H         -5.5402688577        2.0977900335       -1.9075062005
 H         -6.5354650225        1.0761658479        0.4421453818
 H         -6.8664607470       -0.1193482588        2.5815960450
 H         -5.0733409317       -1.4829169341        3.5414324065
 H         -2.9050022287       -1.7254029545        2.3947071354
 H         -2.1361756237       -3.0227528255        0.4215132912
  52
  -80.3471473800000       5.618439632496489E-003 !
 C          0.0349316752       -1.5983389385        2.7736195645
 C          1.2237392792       -1.3050951479        2.1315853033
 C          1.2107065517       -0.6355794651        0.9098159204
 N          2.4072641781       -0.3177500694        0.2611967526
 C          2.7439416030        0.9271935595       -0.2378287377
 C          2.0376150814        2.1203273357       -0.1912692014
 C          2.6258895194        3.2405493165       -0.7472189592
 C          3.8899824270        3.1856813159       -1.3293294933
 C          4.6081895142        2.0069152210       -1.3558970906
 C          4.0378728679        0.8678582644       -0.8032950995
 C          4.4948550807       -0.4841660337       -0.6390991297
 C          5.6590282509       -1.1483046557       -1.0015190402
 C          5.7728386210       -2.4923360416       -0.7068448635
 C          4.7379659816       -3.1765985346       -0.0737063112
 C          3.5700604894       -2.5371536065        0.2965356519
 C          3.4605924257       -1.1809075203        0.0262847895
 C         -0.0046980752       -0.2668545383        0.3414023795
 C         -1.1903886157       -0.5480814064        1.0026927307
 N         -2.4164813507       -0.1406995667        0.4334810022
 C         -3.0780941184        1.0272907141        0.7329026871
 C         -2.7094099691        2.0402855380        1.6054626266
 C         -3.5532568227        3.1283466109        1.7152993636
 C         -4.7339192887        3.2077645256        0.9786195561
 C         -5.1034005532        2.2008737327        0.1089786381
 C         -4.2713779110        1.0963939741       -0.0233059648
 C         -4.3182364168       -0.1010451678       -0.8149139207
 C         -5.2203656988       -0.6117987832       -1.7394727330
 C         -4.9428663519       -1.8269424355       -2.3333226085
 C         -3.7843891753       -2.5357012060       -2.0192483314
 C         -2.8718216303       -2.0524309432       -1.1018084828
 C         -3.1480475870       -0.8324301439       -0.5030271325
 C         -1.1752562881       -1.2167730099        2.2204970037
 H          0.0524161935       -2.1170999174        3.7201579488
 H          2.1679518335       -1.5741820609        2.5798080105
 H          1.0649991414        2.1819413553        0.2730937094
 H          2.0935605416        4.1799201418       -0.7259142196
 H          4.3139140665        4.0823757559       -1.7557705093
 H          5.5950284895        1.9674425135       -1.7914703633
 H          6.4535706092       -0.6212989234       -1.5077144754
 H          6.6708804002       -3.0270273319       -0.9775054060
 H          4.8480397502       -4.2316251064        0.1287853615
 H          2.7664283496       -3.0823518417        0.7681015387
 H         -0.0295735872        0.2314999845       -0.6157845627
 H         -1.7937214395        1.9762756261        2.1754769617
 H         -3.2929756114        3.9353120893        2.3842869226
 H         -5.3670413874        4.0751069127        1.0931008768
 H         -6.0181888179        2.2683206950       -0.4603156367
 H         -6.1187913083       -0.0663869917       -1.9859593905
 H         -5.6325709798       -2.2403147245       -3.0541264924
 H         -3.5975346307       -3.4826193797       -2.5038181633
 H         -1.9734692785       -2.6001795243       -0.8566783586
 H         -2.1067827281       -1.4297856316        2.7224730305
  52
  -80.3471164000000       5.437237414768575E-003 !
 C         -0.1631476831        1.5121100061        2.7857302207
 C          1.0601624124        1.3454856911        2.1637223964
 C          1.1358471324        0.6957105074        0.9335432675
 N          2.3716335771        0.5157719532        0.3050643555
 C          3.3279319430        1.4928058408        0.1032035633
 C          3.2765839610        2.8508370999        0.3816827424
 C          4.3738750421        3.6204078748        0.0445180688
 C          5.4954603801        3.0613122637       -0.5636538003
 C          5.5419691177        1.7149745017       -0.8657556371
 C          4.4513137924        0.9211956626       -0.5361977665
 C          4.1533594697       -0.4723001611       -0.7176701325
 C          4.8639359984       -1.5372195225       -1.2554031411
 C          4.2815989083       -2.7889833070       -1.2536749445
 C          3.0137505298       -2.9879143121       -0.7122772280
 C          2.2876192950       -1.9439352704       -0.1711181420
 C          2.8585336899       -0.6796958094       -0.1901789317
 C         -0.0261990620        0.2173847631        0.3357257344
 C         -1.2466555521        0.3773232612        0.9742344017
 N         -2.4217559568       -0.1191572347        0.3685965563
 C         -2.9914606377       -1.3460486520        0.6164731835
 C         -2.5505788886       -2.3619675090        1.4512903523
 C         -3.3115100106       -3.5130738369        1.5151353744
 C         -4.4808243712       -3.6524521650        0.7692562322
 C         -4.9221805772       -2.6430152108       -0.0631023246
 C         -4.1755012975       -1.4748081262       -0.1468181743
 C         -4.3165749249       -0.2507488713       -0.8845913768
 C         -5.2585422439        0.2300768306       -1.7851166874
 C         -5.0818465467        1.4919868024       -2.3169725387
 C         -3.9839833110        2.2757262613       -1.9656547598
 C         -3.0328042599        1.8224589996       -1.0723962169
 C         -3.2084103030        0.5560769752       -0.5351292815
 C         -1.3196359500        1.0258775662        2.2009811626
 H         -0.2142861212        2.0153081210        3.7393868943
 H          1.9651958254        1.6998242931        2.6330241692
 H          2.4050639723        3.2980525478        0.8357189315
 H          4.3596308996        4.6797200016        0.2545694770
 H          6.3338835024        3.6959410834       -0.8092035395
 H          6.4038825851        1.2843620531       -1.3525568610
 H          5.8529275423       -1.3849549066       -1.6600926209
 H          4.8164093610       -3.6305486405       -1.6677612061
 H          2.5892755075       -3.9808467141       -0.7112249996
 H          1.3134665215       -2.1153456307        0.2613854952
 H          0.0167746475       -0.2684194584       -0.6271675107
 H         -1.6449090907       -2.2517924380        2.0300776107
 H         -2.9946188127       -4.3226327303        2.1559365901
 H         -5.0474728193       -4.5683959027        0.8467337936
 H         -5.8280274090       -2.7557466753       -0.6394433789
 H         -6.1106734013       -0.3732086129       -2.0596621617
 H         -5.8044326915        1.8835583023       -3.0174037577
 H         -3.8760307508        3.2582229498       -2.4009102970
 H         -2.1823408590        2.4290663010       -0.7976142021
 H         -2.2778632819        1.1443341786        2.6835764286
