  52
  -80.0318431035000       0.492254278494337      !
 C          0.0087495207        3.1847731384       -0.1490927598
 C          1.2032995377        2.4917460364       -0.2170119790
 C          1.2019067966        1.1011271810       -0.1379432148
 N          2.4047255240        0.3895127272       -0.2120053308
 C          2.6613654012       -0.6786146383       -1.0499294604
 C          1.8458207460       -1.2731307049       -2.0020278427
 C          2.3678775490       -2.3218482735       -2.7349445249
 C          3.6725089099       -2.7690161420       -2.5385746449
 C          4.4966016316       -2.1660893510       -1.6096527818
 C          3.9939307839       -1.1107397803       -0.8599808156
 C          4.5600607936       -0.2595345908        0.1487722741
 C          5.8043403211       -0.2036817806        0.7626688587
 C          6.0189177064        0.7504191560        1.7370398061
 C          5.0066142954        1.6308894487        2.1122412223
 C          3.7605325692        1.5946907933        1.5159694773
 C          3.5471160873        0.6548902439        0.5177947676
 C         -0.0003508033        0.4170944130       -0.0001535304
 C         -1.1982333633        1.1198143843        0.0600077041
 N         -2.4068861603        0.4271583378        0.1959757406
 C         -3.5340050833        0.6135114583       -0.5806343515
 C         -3.7273447435        1.4470602206       -1.6728286021
 C         -4.9602718688        1.4185238819       -2.2960709652
 C         -5.9791184048        0.5770537114       -1.8551709558
 C         -5.7840324075       -0.2730074083       -0.7850622037
 C         -4.5531039954       -0.2626861493       -0.1426210345
 C         -4.0066888551       -1.0068460096        0.9575575396
 C         -4.5216272228       -1.9861968623        1.7963935626
 C         -3.7152724051       -2.4912684242        2.7965596255
 C         -2.4165583465       -2.0205000959        2.9752362621
 C         -1.8819627416       -1.0468523044        2.1532489770
 C         -2.6790758354       -0.5529541111        1.1306529578
 C         -1.1905972901        2.5108292404       -0.0095397068
 H          0.0123758055        4.2628828745       -0.2060369428
 H          2.1365584432        3.0174494912       -0.3465407908
 H          0.8398624477       -0.9232779956       -2.1779072604
 H          1.7507408268       -2.8024154297       -3.4795350068
 H          4.0426343295       -3.5931925727       -3.1301932330
 H          5.5130791337       -2.5006141422       -1.4687562894
 H          6.5827149301       -0.8977384909        0.4835785061
 H          6.9801483767        0.8133590470        2.2245913757
 H          5.1984381931        2.3556558460        2.8894154814
 H          2.9776385649        2.2699731773        1.8270664523
 H         -0.0041468515       -0.6602551963        0.0581217066
 H         -2.9386200742        2.0892186565       -2.0344940000
 H         -5.1364627374        2.0610040267       -3.1461085452
 H         -6.9299228667        0.5869963824       -2.3666784630
 H         -6.5678469404       -0.9367472083       -0.4530295287
 H         -5.5337223795       -2.3385988263        1.6674656320
 H         -4.0947932056       -3.2559174539        3.4577572396
 H         -1.8139601520       -2.4227205292        3.7761105445
 H         -0.8807452746       -0.6769350523        2.3136063684
 H         -2.1206196124        3.0532588700        0.0613970333
  52
  -80.0317739926000       0.457539221603194      !
 C          0.1270160267        2.9460279565        1.2300005406
 C          1.2828061088        2.3519715572        0.7576092590
 C          1.2284761708        1.0742575361        0.2057183878
 N          2.3987260671        0.4572148037       -0.2531698936
 C          2.5731745235       -0.1418646594       -1.4850113560
 C          1.7012986231       -0.2232236492       -2.5604367503
 C          2.1400312623       -0.8628197547       -3.7035250916
 C          3.4216208345       -1.4023862163       -3.7873307198
 C          4.3045656960       -1.3003821502       -2.7308756862
 C          3.8846279928       -0.6625308957       -1.5711089668
 C          4.5256457255       -0.3614127820       -0.3217939592
 C          5.7893905451       -0.6244842942        0.1902777100
 C          6.0846774223       -0.2032627987        1.4713606196
 C          5.1335211295        0.4587561990        2.2444127002
 C          3.8695294445        0.7313413444        1.7570574386
 C          3.5748842336        0.3325807061        0.4611488843
 C          0.0130323018        0.4035063923        0.1302672794
 C         -1.1465603847        1.0098796193        0.6000411649
 N         -2.3683944433        0.3288636379        0.5390731561
 C         -2.8999496887       -0.2919251679       -0.5741820745
 C         -2.4149818609       -0.3481258514       -1.8722592202
 C         -3.1665539819       -1.0203382627       -2.8165678028
 C         -4.3814260342       -1.6168723481       -2.4872972860
 C         -4.8839145546       -1.5409129365       -1.2037192680
 C         -4.1448504096       -0.8710598445       -0.2377043204
 C         -4.3659843348       -0.5841421630        1.1520121324
 C         -5.3866805437       -0.8962531871        2.0401904499
 C         -5.2759718616       -0.4738125054        3.3496552927
 C         -4.1577718621        0.2365555853        3.7805426308
 C         -3.1298553964        0.5590619942        2.9154532736
 C         -3.2475502653        0.1602389633        1.5917864412
 C         -1.0865128676        2.2880798532        1.1504271189
 H          0.1699051901        3.9392865422        1.6508065051
 H          2.2256706561        2.8750053975        0.7985697742
 H          0.7154093973        0.2123668622       -2.5146127003
 H          1.4762271756       -0.9418360753       -4.5516788031
 H          3.7270147912       -1.8975891121       -4.6966463913
 H          5.3039193705       -1.7023000049       -2.8017460028
 H          6.5204015530       -1.1517786868       -0.4038868700
 H          7.0622699369       -0.3947914947        1.8877188748
 H          5.3881644424        0.7627215030        3.2489239534
 H          3.1341138219        1.2284862881        2.3715964213
 H         -0.0251057700       -0.6001629103       -0.2646050871
 H         -1.4865690216        0.1298360353       -2.1434157017
 H         -2.8054302085       -1.0809864483       -3.8327281397
 H         -4.9388607334       -2.1357510526       -3.2526043071
 H         -5.8338149183       -1.9874496070       -0.9520589125
 H         -6.2444968604       -1.4618106828        1.7092396594
 H         -6.0597286411       -0.7028315394        4.0558312596
 H         -4.0909821849        0.5397691794        4.8149047605
 H         -2.2595926983        1.0939428022        3.2646164093
 H         -1.9916967372        2.7615888649        1.4978091003
  52
  -80.0290481573000       2.556943666906873E-002 !
 C         -0.4734788674        0.1014837695       -3.1367029675
 C          0.8138898422        0.0400054963       -2.6366557567
 C          1.0271134792       -0.0198848351       -1.2610738856
 N          2.3272869010       -0.0720990480       -0.7498454511
 C          3.3298342624       -0.9250816174       -1.1707600341
 C          3.2832238214       -1.9525815772       -2.1016238632
 C          4.4367493456       -2.6835378185       -2.3138707707
 C          5.6099727965       -2.4108319041       -1.6141616785
 C          5.6551496129       -1.4057712541       -0.6687167585
 C          4.5084638326       -0.6573194529       -0.4381654699
 C          4.1953460898        0.4180489280        0.4613231255
 C          4.9372459844        1.1227167539        1.4000226724
 C          4.3229443085        2.1436655386        2.0973956538
 C          2.9909886694        2.4735639668        1.8582602411
 C          2.2326152406        1.7871698714        0.9288814946
 C          2.8381755080        0.7457027483        0.2409491077
 C         -0.0625097937       -0.0184925293       -0.3954805265
 C         -1.3493556823        0.0573416353       -0.9064252632
 N         -2.4514538704        0.0691450221       -0.0235938480
 C         -3.0839725933        1.1947212520        0.4499745329
 C         -2.7834829223        2.5287998075        0.2190461642
 C         -3.5798197793        3.4787497845        0.8286204328
 C         -4.6477600191        3.1138863420        1.6468113637
 C         -4.9492248254        1.7865671831        1.8790221582
 C         -4.1639736679        0.8105907326        1.2789416047
 C         -4.1735385902       -0.6254723575        1.2917259572
 C         -4.9781031194       -1.5797069036        1.9012782274
 C         -4.6978602391       -2.9149609373        1.6889827105
 C         -3.6313763661       -3.3089422073        0.8825297899
 C         -2.8159409746       -2.3811772318        0.2641279022
 C         -3.0959268329       -1.0392475950        0.4740074939
 C         -1.5594953961        0.1167837178       -2.2787096288
 H         -0.6313202725        0.1490407730       -4.2035248627
 H          1.6615100386        0.0563950596       -3.3046055020
 H          2.3743244436       -2.1848347850       -2.6360936725
 H          4.4268945896       -3.4863170427       -3.0363076695
 H          6.4911896951       -3.0031763313       -1.8105964064
 H          6.5592024164       -1.2052336137       -0.1139460663
 H          5.9739050192        0.8768131375        1.5730308207
 H          4.8813504770        2.7036188420        2.8324852484
 H          2.5408755689        3.2866463397        2.4081603759
 H          1.2065480949        2.0649334493        0.7406047273
 H          0.0889294010       -0.0863829386        0.6710432404
 H         -1.9564034083        2.8100409845       -0.4167320184
 H         -3.3713806454        4.5263226809        0.6686954964
 H         -5.2463272271        3.8868186983        2.1054387036
 H         -5.7768677057        1.5087413837        2.5140465392
 H         -5.8054925545       -1.2791664474        2.5262247932
 H         -5.3131445886       -3.6713242216        2.1530975887
 H         -3.4398423013       -4.3619623842        0.7380857181
 H         -1.9901375306       -2.6845964900       -0.3625705864
 H         -2.5676629634        0.1729320845       -2.6602529376
  52
  -80.0290130543000       2.463706323339999E-002 !
 C          0.0300562121        3.1509572882        0.5651883445
 C          1.2133164410        2.4862439384        0.3015317004
 C          1.2075667810        1.1100544485        0.0842508782
 N          2.3953576321        0.4310599827       -0.2013921027
 C          2.5844026976       -0.4495679232       -1.2506867335
 C          1.7061101028       -0.8333573247       -2.2536528180
 C          2.1666027317       -1.7170701063       -3.2112761741
 C          3.4708504247       -2.2049216951       -3.1842052821
 C          4.3569368627       -1.8068276390       -2.2031911585
 C          3.9172428697       -0.9192929483       -1.2300353882
 C          4.5552488715       -0.2915087291       -0.1063814923
 C          5.8329978750       -0.3693534386        0.4312291068
 C          6.1203838466        0.3673105878        1.5630159475
 C          5.1480339068        1.1612800567        2.1664967198
 C          3.8696185407        1.2547353316        1.6498803928
 C          3.5825356279        0.5370291558        0.4979674281
 C          0.0053337832        0.4113446579        0.1362208664
 C         -1.1783466193        1.0901854661        0.3818453757
 N         -2.3968218287        0.3772661578        0.3999995415
 C         -3.2495232714        0.2411767980       -0.6704984882
 C         -3.1146977011        0.7297578069       -1.9614508601
 C         -4.1182532403        0.4366644353       -2.8642194212
 C         -5.2281880621       -0.3209729981       -2.4940864541
 C         -5.3649687029       -0.8089061878       -1.2096281797
 C         -4.3686288090       -0.5317287881       -0.2822038242
 C         -4.1660132764       -0.8712436585        1.0985119223
 C         -4.8968006951       -1.5963119970        2.0311110579
 C         -4.3894674069       -1.7334297884        3.3078449001
 C         -3.1700623024       -1.1603188964        3.6651208599
 C         -2.4242559232       -0.4322829309        2.7586099529
 C         -2.9314952994       -0.2921354932        1.4755243182
 C         -1.1703043358        2.4624353874        0.5993084080
 H          0.0417965210        4.2173909655        0.7323258677
 H          2.1441140286        3.0294017649        0.2428449372
 H          0.6982477420       -0.4490856686       -2.2979215775
 H          1.4998700577       -2.0328988475       -3.9999239584
 H          3.7915788722       -2.8963519586       -3.9488544484
 H          5.3729637264       -2.1710850747       -2.1913900379
 H          6.5810547665       -0.9983871397       -0.0270218173
 H          7.1086046904        0.3232284815        1.9955749308
 H          5.3965760035        1.7131155482        3.0608705767
 H          3.1183743157        1.8570905370        2.1379791926
 H         -0.0096955916       -0.6584160128       -0.0071984111
 H         -2.2533848173        1.3169256008       -2.2458329837
 H         -4.0414671250        0.8002530402       -3.8783156519
 H         -5.9915859778       -0.5280205297       -3.2293328911
 H         -6.2259727005       -1.3965339593       -0.9288286933
 H         -5.8415856128       -2.0420722900        1.7589392538
 H         -4.9435251133       -2.2931183019        4.0466927789
 H         -2.8017454310       -1.2886172949        4.6722250123
 H         -1.4790742292        0.0129924009        3.0334111136
 H         -2.0998963758        2.9765604504        0.7906977382
