69
 energy: -106.093837042064 gnorm: 0.000026591265 xtb: 6.7.1 (edcfbbe)
C           -5.68532613164162       -4.76212626391511        0.20925262537337
C           -4.70237075910084       -5.53466384833136        0.80579444572569
C           -3.37247070494218       -5.16828374600350        0.70579531996330
C           -3.00407969385892       -4.01889294750399        0.00952508763928
C           -1.59039500993131       -3.62295418166815       -0.09826897937791
C           -0.58835274857094       -4.57304531506916       -0.29829776361055
C            0.73912104679007       -4.19162792087343       -0.39800667880826
C            1.09380074558986       -2.85888191951953       -0.30431381041757
C            0.10535326497469       -1.89588431445692       -0.10878246274835
C            0.45046110585162       -0.47718319320992       -0.01562365720877
N            1.73598194618449       -0.13661726028486       -0.00004460494611
C            1.99150014316287        1.16652921161961        0.09416349719794
C            3.39235933415424        1.58853925217089        0.11553416156730
C            3.72114306754101        2.94007587828059        0.21157678859905
C            5.04908501737118        3.32210076251269        0.22763968652889
C            6.05203205793869        2.37104704079828        0.14537870780128
C            5.74164963044700        1.01434484828206        0.04834331803602
C            6.80531601876012        0.00035932523946       -0.03994352735528
C            7.93298480568166        0.21923858162488       -0.82832472307008
C            8.92794804798955       -0.73760208687747       -0.91390400179955
C            8.81508272158467       -1.92539567275404       -0.21023568457337
C            7.69933378654842       -2.15187974020487        0.57904386892804
C            6.70053970042852       -1.19894851869696        0.66158661237485
C            4.40438452970316        0.63623851826804        0.03580276925995
N            1.05345472724483        2.10795333033786        0.17014901439906
C           -0.20483739430243        1.67762428794546        0.13471587647562
C           -1.28339078744185        2.66393531792526        0.20127992080027
C           -1.00619035087040        4.01083361089526        0.42823675006527
C           -2.04479792998110        4.92082055238208        0.49131257402566
C           -3.35464202436820        4.50255114484869        0.32696916834082
C           -3.64993672438785        3.15854135744782        0.09755064430618
C           -5.03933184808347        2.70320919204813       -0.07475440460959
C           -5.94480468912946        3.44642234942541       -0.82879619198703
C           -7.24744437253689        3.01116928777619       -0.99221305927625
C           -7.66767473970977        1.83143170183397       -0.40013074192345
C           -6.77572873211257        1.08564220226047        0.35320013372368
C           -5.47113322579150        1.51560967808536        0.51266812338343
C           -2.60172811054642        2.24861139931685        0.03785810991690
N           -0.55048342419280        0.39653926936340        0.04389587072292
C           -1.22700521967793       -2.28487799769302       -0.00599418830301
C           -4.00177868702107       -3.24675926997665       -0.58292152244409
C           -5.33045028926394       -3.61725043772948       -0.48541632326765
H           -6.72341683487476       -5.05089250330019        0.28565275463493
H           -4.97321944879183       -6.42610163198659        1.35307174509847
H           -2.61320294018082       -5.76586872463317        1.18893110583394
H           -0.85454125287891       -5.61533331280294       -0.39354986515378
H            1.50171041361309       -4.94008580583355       -0.55576728597311
H            2.12293013875653       -2.54573743591318       -0.38430009830125
H            2.92769830643863        3.66809239727520        0.27174761906952
H            5.30649615220335        4.36813010621246        0.30636293657423
H            7.08683953070737        2.67872647210660        0.17510706140790
H            8.01865148955775        1.13585549148066       -1.39360170464623
H            9.79418955929422       -0.55682532790326       -1.53394492157245
H            9.59338093800987       -2.67149822298897       -0.27634621005424
H            7.60719981085037       -3.07479353813765        1.13340676173630
H            5.83917669581794       -1.37401999388893        1.29007358768531
H            4.12752155239659       -0.40261700963652       -0.05411198980570
H            0.01916440245135        4.32044326918612        0.55534994445841
H           -1.83397392500295        5.96440598544790        0.67324377942956
H           -4.15917406220713        5.21984383146745        0.39494784882424
H           -5.61806716143635        4.35860743117427       -1.30668132347463
H           -7.93752255686366        3.59408554620912       -1.58511613716016
H           -8.68617195664920        1.49426761078066       -0.52594991172769
H           -7.09769097256349        0.16631878272621        0.82093306973811
H           -4.78386995413596        0.93807424899628        1.11411896527790
H           -2.79190391358975        1.20466812820725       -0.15673622069947
H           -1.97205833869604       -1.52431602041706        0.16779685703345
H           -3.73094255399905       -2.36208157997503       -1.14096680905251
H           -6.09115181588111       -3.01125569071127       -0.95623995825618
