69
 energy: -106.093217584632 gnorm: 0.000092161321 xtb: 6.7.1 (edcfbbe)
C            0.51608589830938       -8.51056985224048       -0.04908179050102
C            0.97161997836595       -7.46606327392007       -0.83686579674758
C            0.31433478042121       -6.24938795101926       -0.82681993435143
C           -0.81462469972422       -6.06035955487413       -0.03246482292489
C           -1.51738638648484       -4.76679155921298       -0.02894986754193
C           -2.91131826287590       -4.71113048664947       -0.03292204350696
C           -3.57073360722256       -3.49375115189780       -0.03879443122169
C           -2.85474124564236       -2.31183400038570       -0.03793894121779
C           -1.46093239101240       -2.34832143271982       -0.03098449970159
C           -0.68869837189195       -1.10533152472728       -0.02949499321012
N           -1.35664697095265        0.04514087116287       -0.03216757671998
C           -0.61479705150069        1.14992759214949       -0.03742120368230
C           -1.30493339868317        2.44023307435698       -0.04899762607485
C           -0.57648363442472        3.62881517122932       -0.07487472002971
C           -1.24168177618636        4.84000761218586       -0.08881485426711
C           -2.62567812922402        4.87802451048744       -0.07882132155021
C           -3.37039143184656        3.69885417594858       -0.05094635141014
C           -4.84205116205934        3.73758835980524       -0.03597091283499
C           -5.56370167668875        2.88646381846449        0.79810462837396
C           -6.94595910982691        2.92696932122477        0.81744688075986
C           -7.62854129266459        3.81172412110459       -0.00137314496315
C           -6.92051641692647        4.65858046205117       -0.83826927940667
C           -5.53791185591557        4.62513913879287       -0.85371962959414
C           -2.69611816681487        2.48389036111448       -0.03539138900711
N            0.71552300660209        1.15321621617310       -0.03022587705971
C            1.30134497997112       -0.04158010444163       -0.02220831520281
C            2.76372122063010       -0.08935287608349       -0.00403984291751
C            3.42851806825012       -1.31479978108322       -0.02109204747164
C            4.80995180570253       -1.34501648795057       -0.00191869675882
C            5.53467437773012       -0.16584878004203        0.03357872336992
C            4.88611302358896        1.06907795527675        0.05373434831177
C            5.65620584309256        2.32298060081123        0.09928741310551
C            6.79967529548910        2.48368424937708       -0.68006664977184
C            7.52192633659395        3.66225142935196       -0.63395612675258
C            7.11720274474022        4.69533807082913        0.19531493133998
C            5.98247012150773        4.54507347654035        0.97565593773518
C            5.25492255240858        3.37001976384686        0.92612486925251
C            3.49676768037704        1.09323345042108        0.03465269410609
N            0.63897700130116       -1.19524204263304       -0.02677862410294
C           -0.80282175862436       -3.57479902920070       -0.02744716742188
C           -1.26540548615325       -7.11787392071488        0.75453694643995
C           -0.60269617057543       -8.33179079459430        0.74783195715850
H            1.03131298693104       -9.45992044301618       -0.05611302086228
H            1.84203457386427       -7.60043039784608       -1.46289846475075
H            0.66386847919249       -5.44230080740992       -1.45453530023341
H           -3.47949499517696       -5.62939304619253       -0.05129468415547
H           -4.65048367383135       -3.46806505422879       -0.04791685157689
H           -3.35311483840242       -1.35534705377272       -0.04443925998159
H            0.50100821206863        3.58195549506621       -0.08496485969357
H           -0.67912862090004        5.76187048849049       -0.10542248985306
H           -3.13725158165007        5.82922227886565       -0.07377229348403
H           -5.03425022884069        2.20477753229623        1.44826929388247
H           -7.49309323620673        2.26639136813323        1.47463748119469
H           -8.70823483440535        3.84085894483242        0.01285260851827
H           -7.44804426197211        5.34736446600699       -1.48232130188253
H           -4.99076083590129        5.27685172195434       -1.51941721330837
H           -3.24159270589981        1.55304821852858       -0.03083427463915
H            2.84884682585451       -2.22390318606453       -0.04769863155964
H            5.32704475642146       -2.29324714987637       -0.01128422501075
H            6.61372326616538       -0.19934775055631        0.06527603097547
H            7.11078090434111        1.68682248590329       -1.33998012363865
H            8.40366374054140        3.77585861428491       -1.24806854946954
H            7.68379053582029        5.61420818853625        0.23339359897186
H            5.66380545845398        5.34646632362806        1.62670722292157
H            4.37884751489297        3.25078719191518        1.54738558105348
H            2.96310271959269        2.03093946783403        0.03265546154350
H            0.27579132540971       -3.58102420720477       -0.00591460262948
H           -2.12775738288366       -6.97939270081958        1.39034271833822
H           -0.95967836463666       -9.14144018760247        1.36790629729894
