69
 energy: -106.004630771508 gnorm: 0.000036524930 xtb: 6.7.1 (edcfbbe)
C           -5.72458048593381       -4.71366077221489        0.13772064130993
C           -4.76749521388820       -5.48880013864547        0.77360335131383
C           -3.43150895876274       -5.14086724922135        0.70380632607499
C           -3.02799971740574       -4.00645565435869       -0.00078562632854
C           -1.60880575943905       -3.62997062256636       -0.07300679549213
C           -0.61158898119896       -4.60224919239476       -0.21002139414700
C            0.72407317583965       -4.23257543730648       -0.27048775511354
C            1.09410732660245       -2.90721304648508       -0.19683319007301
C            0.11000338997283       -1.91345293359930       -0.06305131947254
C            0.45826812017675       -0.52591336381951        0.01484092886342
N            1.71584676701097       -0.12641968877330        0.01797746129926
C            2.03310499969620        1.15477985778562        0.10089942281930
C            3.40200423099965        1.57393287737282        0.10846540436485
C            3.73595100697694        2.93635601085699        0.18967052608421
C            5.05860622608531        3.32370854579534        0.19156333636433
C            6.07182367580094        2.38084787192894        0.11089893045521
C            5.76327096312851        1.01756450769261        0.03117741725745
C            6.83164244116941        0.01162167561691       -0.06054988362585
C            7.95257091028719        0.23439358396372       -0.86017225666877
C            8.95447263174941       -0.71389162651647       -0.94760255157344
C            8.85754543510116       -1.89870087225719       -0.23478309937719
C            7.74965411271988       -2.12980161630460        0.56557378600946
C            6.74336723355588       -1.18594670619271        0.64942995817015
C            4.43355880896539        0.62767182214557        0.03456066318507
N            1.03845997000335        2.09926599516006        0.18668678044476
C           -0.20884151194111        1.67483263769401        0.16165203637370
C           -1.29131296086804        2.66170838820882        0.22883013230842
C           -1.01728837674277        4.00830971707911        0.46060259563166
C           -2.05851557903463        4.91544157331222        0.51976486823189
C           -3.36690064159830        4.49619354140482        0.34677212663487
C           -3.65755516264876        3.15184547029931        0.11258197472413
C           -5.04356751311284        2.69221862957555       -0.07327614775097
C           -5.94298014322972        3.43335576312918       -0.83679336533633
C           -7.24238865091715        2.99422084724258       -1.01423460482421
C           -7.66510268403659        1.81247382204222       -0.42767177719906
C           -6.77912500378230        1.06884516909610        0.33492337700266
C           -5.47771118175526        1.50269714000920        0.50881170436767
C           -2.60757602151556        2.24395643027738        0.05719739367936
N           -0.54992574216153        0.40336297788054        0.07842183668516
C           -1.23579814661902       -2.29654576928104       -0.00352249943536
C           -4.00139271059913       -3.23208152483705       -0.63333409412413
C           -5.33609357643182       -3.58434772784364       -0.56606361695447
H           -6.76794385507465       -4.98802404017404        0.19081514248091
H           -5.06478424041588       -6.36733021094136        1.32792256898416
H           -2.69307236039120       -5.73926881562317        1.21697369765389
H           -0.88574462792699       -5.64286142571093       -0.29278145702582
H            1.48303074316587       -4.99373090806824       -0.38148783631652
H            2.13121862214408       -2.61168410038100       -0.24272399099928
H            2.93944577393880        3.66194612872607        0.24900568492355
H            5.30954138478898        4.37256079538229        0.25939551239009
H            7.10426702083777        2.69468098232786        0.13327976340988
H            8.02478757987405        1.14817437941608       -1.43169108471026
H            9.81405539588939       -0.53028326907429       -1.57595582213823
H            9.64167806269921       -2.63844927880926       -0.30241997099974
H            7.67104501872404       -3.04944334215454        1.12734551623948
H            5.88911367462412       -1.36365096390666        1.28667334706055
H            4.16664764710690       -0.41531807462228       -0.04684651783484
H            0.00650935392521        4.32150279285343        0.59418185532005
H           -1.84947091768842        5.95867583563273        0.70551334519777
H           -4.17301198669956        5.21171689336657        0.41172201404220
H           -5.61376327586206        4.34689876679455       -1.31023367062222
H           -7.92797153450957        3.57548541890503       -1.61387007263211
H           -8.68095910178255        1.47197285074534       -0.56509348382330
H           -7.10314591270562        0.14800831493881        0.79816348174008
H           -4.79543409580150        0.92670896655384        1.11738705326846
H           -2.79630249539124        1.20019760284823       -0.14206764701567
H           -1.97840781150494       -1.52438149828533        0.12743919390504
H           -3.70415553163727       -2.36077423739226       -1.19875048789380
H           -6.07625327492504       -2.97742467414193       -1.06737574929628
