  99
       -160.56526366
 C         -3.8947614984       -4.8682740297       -2.3036432586
 C         -2.7365241199       -5.2997003706       -1.6756396776
 C         -1.8040349634       -4.3818254034       -1.2325263316
 C         -2.0309835326       -3.0190342263       -1.4088595668
 C         -1.0674378656       -2.0371932453       -0.9169378962
 N         -1.3781780458       -0.7505621726       -1.0426973984
 C         -0.4352541741        0.0975183008       -0.6592477889
 N         -0.6958793280        1.4376599798       -0.7923387663
 C          0.2456308781        2.3206780645       -1.3216138217
 C          1.5651456456        2.1037422368       -1.6827895522
 C          2.2778501554        3.1669660750       -2.2063035497
 C          1.6894850433        4.4144732403       -2.3908301511
 C          0.3548343384        4.6145250034       -2.1006385269
 C         -0.3760633330        3.5560204401       -1.5758830586
 C         -1.7610196951        3.4041390986       -1.2299282375
 C         -2.8064670537        4.3139459885       -1.3775241498
 C         -4.0739288190        3.9190450644       -1.0336746090
 C         -4.2556692142        2.6583519008       -0.4695140152
 C         -5.4514452034        2.0625839152        0.0424847156
 C         -6.7723828923        2.4921716532        0.0932054296
 C         -7.7014892203        1.6922403723        0.7233242496
 C         -7.3146255707        0.4976370964        1.3276294346
 C         -6.0073542802        0.0536362638        1.2860378843
 C         -5.0753896473        0.8258714463        0.6031663024
 N         -3.7167873665        0.6288052458        0.4123210692
 C         -3.0473097723       -0.4442075307        1.0168767473
 C         -3.5731209801       -1.7296849902        0.9107208283
 C         -2.9583035467       -2.7881457936        1.5516560383
 C         -1.8084484993       -2.5805035135        2.2931592036
 C         -1.2804229461       -1.3047452174        2.3960803300
 C         -1.9017847895       -0.2352291415        1.7789869600
 C         -3.1969071704        1.7357507987       -0.2451922547
 C         -1.9333024218        2.0895585525       -0.7333139331
 N          0.7756757976       -0.2407714211       -0.2277559393
 C          0.9733663836       -1.5474933711       -0.1002522334
 N          2.2118296784       -1.9878310780        0.2837977066
 C          2.5341809181       -3.3525594511        0.1898664240
 C          1.7666601202       -4.4537187435        0.5181562963
 C          2.3252546333       -5.7077081557        0.3302432676
 C          3.6144851809       -5.8598796567       -0.1669411337
 C          4.3930847117       -4.7582125205       -0.4690906008
 C          3.8521508694       -3.4952359129       -0.2791735241
 C          4.3878771641       -2.1662433468       -0.4380262633
 C          5.6118993144       -1.7348577913       -0.9458237868
 C          5.8697784379       -0.3844030292       -1.0049754791
 C          4.9546395758        0.5041178598       -0.4460271037
 C          5.0204204079        1.9213933834       -0.2446687122
 C          5.9491451900        2.8837618113       -0.6211125953
 C          5.7451792141        4.1884520962       -0.2234982540
 C          4.6475502784        4.5269594155        0.5643312367
 C          3.7149400072        3.5846407776        0.9520793458
 C          3.8872252356        2.2772716626        0.5192233875
 N          3.1174020857        1.1488714841        0.7527576083
 C          2.1804343297        1.0767367123        1.7935778234
 C          1.1789549713        2.0348523667        1.9143042010
 C          0.3675502725        2.0484096633        3.0342869427
 C          0.5400682656        1.1093027530        4.0377931647
 C          1.5118759478        0.1308981596        3.8997974021
 C          2.3294600486        0.1108306620        2.7853573369
 C          3.7386192907        0.0725880656        0.1473723616
 C          3.3984630833       -1.2696813163        0.0174673229
 N          0.0698496167       -2.4774239847       -0.4006606990
 C         -3.1882323822       -2.5900914026       -2.0566431462
 C         -4.1147668342       -3.5135917331       -2.4998047075
 H         -4.6243671753       -5.5883295564       -2.6445765965
 H         -2.5631847451       -6.3562615000       -1.5319613937
 H         -0.8948880817       -4.6997163233       -0.7480745147
 H          2.0211229294        1.1358011870       -1.5661750601
 H          3.3127961600        3.0234075804       -2.4775976000
 H          2.2819537806        5.2253390447       -2.7871750173
 H         -0.1174100952        5.5678711236       -2.2824782463
 H         -2.6091883269        5.2964757738       -1.7756552837
 H         -4.9227844726        4.5705730689       -1.1685239945
 H         -7.0579238640        3.4346764836       -0.3487955253
 H         -8.7358442214        1.9988594015        0.7695178928
 H         -8.0538642135       -0.0951063182        1.8460395147
 H         -5.7288754065       -0.8587279641        1.7896560925
 H         -4.4390287861       -1.9034990973        0.2916619888
 H         -3.3711127376       -3.7814180526        1.4539287732
 H         -1.3209994877       -3.4081065848        2.7862702644
 H         -0.3805039259       -1.1355563592        2.9666698946
 H         -1.4959139901        0.7605409171        1.8804048928
 H          0.7722676351       -4.3362348367        0.9142453337
 H          1.7481162390       -6.5854948362        0.5808088583
 H          4.0156722227       -6.8528616998       -0.3058989590
 H          5.4018432065       -4.8739507089       -0.8350043496
 H          6.3282446325       -2.4570308378       -1.3042486155
 H          6.7845250777       -0.0108837249       -1.4379758971
 H          6.8099599787        2.6099484019       -1.2124043877
 H          6.4483153307        4.9558667079       -0.5108955154
 H          4.5230034202        5.5511852360        0.8833029313
 H          2.8877296461        3.8687172893        1.5820129596
 H          1.0331749112        2.7565074816        1.1262034180
 H         -0.3995320692        2.8043095564        3.1284506677
 H         -0.0871056667        1.1312748451        4.9164372305
 H          1.6472366623       -0.6105174483        4.6745395609
 H          3.1058288803       -0.6347270893        2.6935617257
 H         -3.3408941398       -1.5316534225       -2.1994416385
 H         -5.0137761246       -3.1793753559       -2.9969953084
