  44
  -64.5393748600000       0.338830449952493      !
 C         -5.6630252925        0.0016890073        0.2256789879
 C         -5.0539889683        0.3698718952       -0.9621694175
 C         -3.6743171908        0.3682471855       -1.0667276690
 C         -2.8884533161       -0.0066964417        0.0174725784
 C         -1.4111717910       -0.0008205443       -0.0652230380
 C         -0.7136845516       -1.2139613037       -0.1365546145
 C         -1.3909081780       -2.4576543377       -0.2369878023
 C         -0.7037285369       -3.6287781977       -0.3251044353
 C          0.7057735994       -3.6288628665       -0.3164885879
 C          1.3927387798       -2.4579706442       -0.2227933180
 C          0.7156060258       -1.2135091092       -0.1310901163
 C          1.4118475066        0.0007687407       -0.0594987346
 C          2.8887632611       -0.0038244368        0.0219619315
 C          3.5144587224       -0.4106630528        1.1964018483
 C          4.8939785222       -0.4048277472        1.2936641555
 C          5.6648309754        0.0024169144        0.2176174137
 C          5.0499398798        0.4028575520       -0.9567661627
 C          3.6698969759        0.4020140300       -1.0549296081
 C          0.7145032517        1.2166696104       -0.0392484483
 C          1.3889607300        2.4651215454        0.0101587522
 C          0.7008557941        3.6385858945        0.0356376267
 C         -0.7084527970        3.6372150778        0.0348136599
 C         -1.3935565815        2.4620588665        0.0082829107
 C         -0.7155640754        1.2155529314       -0.0402723784
 C         -3.5081078834       -0.3822218459        1.2053987460
 C         -4.8870085941       -0.3751308395        1.3090322955
 H         -6.7400212670        0.0082489963        0.3072984003
 H         -5.6563081141        0.6615466431       -1.8103586948
 H         -3.1970595469        0.6552953969       -1.9929527490
 H         -2.4709536415       -2.4544317713       -0.2570665811
 H         -1.2320851796       -4.5671198417       -0.4109609552
 H          1.2348719344       -4.5674717899       -0.3943500552
 H          2.4728900128       -2.4565049817       -0.2312946418
 H          2.9097931001       -0.7263400699        2.0347322480
 H          5.3689870078       -0.7187200045        2.2118836653
 H          6.7421835504        0.0071159361        0.2942773530
 H          5.6478128780        0.7189684603       -1.7993086114
 H          3.1879483822        0.7129697665       -1.9709641654
 H          2.4687840267        2.4669171535        0.0267273201
 H          1.2289995025        4.5804661806        0.0658171601
 H         -1.2386742691        4.5779549697        0.0657984082
 H         -2.4734631607        2.4600838298        0.0233509539
 H         -2.8985991654       -0.6736632936        2.0489812904
 H         -5.3573256351       -0.6632455543        2.2380254072
  44
  -64.5391814860000       0.276130192199474      !
 C         -5.6558976595       -0.0118297095        0.2833222881
 C         -5.0729424657        0.3377236561       -0.9232101037
 C         -3.6954842646        0.3432346183       -1.0554237631
 C         -2.8861207287       -0.0056524524        0.0199938605
 C         -1.4102340598        0.0046972589       -0.0868834882
 C         -0.7114179933       -1.2074357710       -0.1600565993
 C         -1.3879298309       -2.4522645666       -0.2499857102
 C         -0.6999787325       -3.6229668589       -0.3374633442
 C          0.7093983079       -3.6204957732       -0.3430146741
 C          1.3954174387       -2.4482736840       -0.2587501564
 C          0.7176822655       -1.2046163562       -0.1612216716
 C          1.4128099578        0.0108667708       -0.0868089802
 C          2.8875423248        0.0006710701        0.0196846318
 C          3.4835988134       -0.4546402433        1.1924199110
 C          4.8600483949       -0.4650213386        1.3218803699
 C          5.6587316555       -0.0249811429        0.2795527713
 C          5.0740780901        0.4252908401       -0.8922080907
 C          3.6965750266        0.4402928120       -1.0225976739
 C          0.7135925380        1.2259957954       -0.0701205624
 C          1.3844335263        2.4763197972       -0.0184805762
 C          0.6932984911        3.6481994037        0.0058445148
 C         -0.7159901722        3.6438986059        0.0010990377
 C         -1.3980168316        2.4670323295       -0.0258513465
 C         -0.7166970497        1.2221572707       -0.0710556871
 C         -3.4796031070       -0.3618401709        1.2272779556
 C         -4.8560759401       -0.3621728800        1.3583636953
 H         -6.7310684411       -0.0112496341        0.3862012856
 H         -5.6940803184        0.6090153019       -1.7646033245
 H         -3.2387952196        0.6157076150       -1.9963550067
 H         -2.4681076920       -2.4502091862       -0.2616393507
 H         -1.2275634839       -4.5625600682       -0.4131346300
 H          1.2395765573       -4.5582363817       -0.4241615993
 H          2.4753213285       -2.4461344276       -0.2798542675
 H          2.8566647547       -0.7962603744        2.0038925979
 H          5.3106417475       -0.8181323573        2.2382051592
 H          6.7340631532       -0.0334954025        0.3805275593
 H          5.6942161799        0.7677613928       -1.7079986387
 H          3.2396986620        0.7870779915       -1.9386313603
 H          2.4641283131        2.4814933076        0.0008952724
 H          1.2190945757        4.5913442972        0.0377113097
 H         -1.2484134585        4.5834544535        0.0285629585
 H         -2.4779685029        2.4619227865       -0.0146019015
 H         -2.8513500499       -0.6346348280        2.0632121834
 H         -5.3058054260       -0.6367844335        2.3015882780
  44
  -64.5384987756000       0.134079357104492      !
 C         -5.6740603782        0.0077134985       -0.0629558799
 C         -4.9552068858       -0.2212349181       -1.2242120391
 C         -3.5724802546       -0.2280487876       -1.1949576040
 C         -2.8922537919       -0.0006406293       -0.0027912770
 C         -1.4129762429       -0.0020735903        0.0217194510
 C         -0.7160660494       -1.2124665695       -0.0945008354
 C         -1.3902191198       -2.4579574308       -0.1949770538
 C         -0.7004166846       -3.6254434810       -0.3074858356
 C          0.7092305605       -3.6223203687       -0.3240826767
 C          1.3940789306       -2.4514568326       -0.2195234874
 C          0.7134328220       -1.2116091792       -0.0968585127
 C          1.4086316798       -0.0021705851        0.0211678177
 C          2.8900148374        0.0004806731       -0.0041209270
 C          3.6190283293       -0.1453490856        1.1706681587
 C          5.0022014317       -0.1419901744        1.1390812883
 C          5.6701887389        0.0059448140       -0.0648448611
 C          4.9500114598        0.1515876841       -1.2386354810
 C          3.5670379342        0.1494993527       -1.2095340829
 C          0.7133372302        1.2059437400        0.1514505992
 C          1.3946832551        2.4447415281        0.2811783384
 C          0.7106409892        3.6151139463        0.3951368540
 C         -0.6989939476        3.6189451770        0.3782684009
 C         -1.3895016516        2.4527222278        0.2566958105
 C         -0.7162776114        1.2073397847        0.1495447264
 C         -3.6212531144        0.2298075254        1.1591956057
 C         -5.0042021797        0.2313194833        1.1284120573
 H         -6.7538756945        0.0122009220       -0.0863410642
 H         -5.4735695565       -0.3944553762       -2.1558406892
 H         -3.0083734185       -0.4045042621       -2.0994596799
 H         -2.4701847997       -2.4618155051       -0.1751358726
 H         -1.2274983623       -4.5655224531       -0.3815363844
 H          1.2390612197       -4.5593758388       -0.4142395332
 H          2.4744266256       -2.4451813043       -0.2237484659
 H          3.0942427828       -0.2607773268        2.1083197508
 H          5.5605772154       -0.2555324076        2.0570242874
 H          6.7500348321        0.0077144759       -0.0885501589
 H          5.4672319499        0.2663930845       -2.1801852235
 H          3.0011011503        0.2611100853       -2.1233946702
 H          2.4750198900        2.4375123828        0.2866363026
 H          1.2409172346        4.5509410543        0.4951349944
 H         -1.2257358414        4.5584306700        0.4620869410
 H         -2.4694263227        2.4576970560        0.2385421380
 H         -3.0958034123        0.4042830958        2.0879548651
 H         -5.5615855158        0.4099736116        2.0373635741
  44
  -64.5381842557000       9.612106648261007E-002 !
 C         -5.6511595768       -0.0190317785        0.3351343822
 C         -5.0857883723       -0.3456026951       -0.8861000501
 C         -3.7107800815       -0.3368275081       -1.0422272713
 C         -2.8850028475        0.0028433123        0.0241479973
 C         -1.4119882762        0.0055828077       -0.1021779595
 C         -0.7143576382       -1.2042441726       -0.2249993824
 C         -1.3848591275       -2.4526715360       -0.3128633741
 C         -0.6943305406       -3.6162130311       -0.4578992666
 C          0.7135316549       -3.6054256822       -0.5182814628
 C          1.3956697166       -2.4335277415       -0.4050810837
 C          0.7152850810       -1.1983214303       -0.2402768002
 C          1.4122007969        0.0106597275       -0.1025152901
 C          2.8851916779       -0.0064825777        0.0220720067
 C          3.4629454830       -0.5362055375        1.1727242227
 C          4.8367104645       -0.5474398039        1.3272089420
 C          5.6515210220       -0.0337410565        0.3319217742
 C          5.0855045774        0.4884618707       -0.8189695689
 C          3.7104928046        0.5043721688       -0.9741378062
 C          0.7144330458        1.2247114009       -0.0323378834
 C          1.3844813590        2.4715605648        0.0784517903
 C          0.6936124817        3.6432112892        0.1192230512
 C         -0.7142688437        3.6418256709        0.0584870191
 C         -1.3960525457        2.4665556480       -0.0144558876
 C         -0.7152141366        1.2211175056       -0.0478485333
 C         -3.4619909047        0.3367241492        1.2463939558
 C         -4.8357395822        0.3233013690        1.4011361271
 H         -6.7244156192       -0.0305722213        0.4562636432
 H         -5.7190612443       -0.6098033534       -1.7207010911
 H         -3.2692495909       -0.5871873799       -1.9965044814
 H         -2.4636913790       -2.4628263651       -0.2682970664
 H         -1.2198358809       -4.5572145007       -0.5311249397
 H          1.2450021612       -4.5363240688       -0.6520496282
 H          2.4747566073       -2.4241413341       -0.4513032295
 H          2.8233937049       -0.9335221838        1.9481702396
 H          5.2725175961       -0.9572247774        2.2268632648
 H          6.7248500008       -0.0416428262        0.4529775930
 H          5.7183504952        0.8858263314       -1.5993779512
 H          3.2686187981        0.9070154239       -1.8745769225
 H          2.4633301791        2.4751428614        0.1232231733
 H          1.2189684489        4.5841182872        0.1947703692
 H         -1.2459361330        4.5820781618        0.0730199906
 H         -2.4752154480        2.4640037558       -0.0599038417
 H         -2.8219307978        0.6011040342        2.0762218557
 H         -5.2710201985        0.5792905701        2.3562656812
  44
  -64.5381128156000       8.912242272949440E-002 !
 C         -5.6739011484        0.0018891085        0.0025189706
 C         -4.9813430472       -0.3203841039       -1.1526127794
 C         -3.5981928069       -0.3228423693       -1.1558008932
 C         -2.8906505693        0.0017941139       -0.0025795145
 C         -1.4119365191        0.0012783256       -0.0036446408
 C         -0.7151392861       -1.2120390948       -0.0901430150
 C         -1.3920012538       -2.4589477373       -0.1479342745
 C         -0.7068165483       -3.6298248476       -0.2519023468
 C          0.7011354122       -3.6262724199       -0.3118625932
 C          1.3885600971       -2.4542649149       -0.2394728211
 C          0.7145720568       -1.2117326579       -0.1048322926
 C          1.4128668956       -0.0001142563       -0.0024020758
 C          2.8911704826       -0.0008071710       -0.0024233929
 C          3.5965615763       -0.5286405775        1.0747867931
 C          4.9796379237       -0.5281266895        1.0742847494
 C          5.6749275071       -0.0039749834       -0.0026776907
 C          4.9806572562        0.5217863181       -1.0794431013
 C          3.5974943879        0.5255449675       -1.0796635969
 C          0.7156524389        1.2119485750        0.1018235809
 C          1.3908295589        2.4530266340        0.2436500806
 C          0.7044249166        3.6251109664        0.3240295614
 C         -0.7034461371        3.6304423443        0.2615739901
 C         -1.3896101018        2.4610593885        0.1480660872
 C         -0.7139984068        1.2137063143        0.0856783937
 C         -3.5940198503        0.3266504422        1.1531523726
 C         -4.9771369470        0.3242501293        1.1550885340
 H         -6.7539871062        0.0016529251        0.0047019958
 H         -5.5208967799       -0.5715541087       -2.0543933107
 H         -3.0552748625       -0.5715907335       -2.0566655586
 H         -2.4710917699       -2.4613975673       -0.1038469121
 H         -1.2361206969       -4.5706544455       -0.2928644354
 H          1.2289504141       -4.5634180371       -0.4122696129
 H          2.4674963340       -2.4529894443       -0.2855446334
 H          3.0516720814       -0.9340820670        1.9155470262
 H          5.5170279305       -0.9384404090        1.9170247525
 H          6.7550155698       -0.0054335867       -0.0027494023
 H          5.5187334838        0.9313196750       -1.9220695736
 H          3.0536018072        0.9329024311       -1.9201120716
 H          2.4697546412        2.4502326206        0.2909458503
 H          1.2329097513        4.5609518782        0.4329181725
 H         -1.2318669168        4.5713987421        0.3091450777
 H         -2.4685912150        2.4649878977        0.1018746752
 H         -3.0477284382        0.5752015105        2.0519895134
 H         -5.5131538924        0.5747663336        2.0590414193
  44
  -64.5378249095000       6.571651153143721E-002 !
 C         -5.6416287793       -0.0213502774        0.4015828266
 C         -5.1007953457       -0.3837620184       -0.8206069850
 C         -3.7295960478       -0.3733091320       -1.0071599953
 C         -2.8824588686        0.0030944801        0.0297758055
 C         -1.4123797768        0.0059068547       -0.1218513607
 C         -0.7136548713       -1.2031160990       -0.2503770738
 C         -1.3810726826       -2.4533883973       -0.3354873893
 C         -0.6888098746       -3.6144528330       -0.4920653372
 C          0.7182815381       -3.5997408992       -0.5655359944
 C          1.3981402959       -2.4269547285       -0.4483002268
 C          0.7159314408       -1.1946220384       -0.2707638398
 C          1.4123201160        0.0138743510       -0.1237999071
 C          2.8825157710       -0.0075518106        0.0259489902
 C          3.4340727929       -0.5626109758        1.1778879108
 C          4.8036269929       -0.5778552110        1.3642521704
 C          5.6412390960       -0.0428129475        0.3996602518
 C          5.1019029599        0.5035997352       -0.7527180597
 C          3.7308245675        0.5231506165       -0.9399620996
 C          0.7136182908        1.2278238737       -0.0578714702
 C          1.3815007937        2.4758275640        0.0532743265
 C          0.6893512150        3.6470144162        0.0846630997
 C         -0.7180076332        3.6440222807        0.0142268541
 C         -1.3980577976        2.4675421676       -0.0548678205
 C         -0.7160211257        1.2225299940       -0.0765809996
 C         -3.4355087757        0.3737615798        1.2528582307
 C         -4.8053214667        0.3593089178        1.4378749744
 H         -6.7118896750       -0.0343620385        0.5463700659
 H         -5.7505962010       -0.6766702717       -1.6326117833
 H         -3.3082727580       -0.6490942552       -1.9635514491
 H         -2.4594035600       -2.4675751706       -0.2821984313
 H         -1.2128184076       -4.5560903588       -0.5678388027
 H          1.2509707952       -4.5279259014       -0.7124888615
 H          2.4768384043       -2.4144038900       -0.5024975185
 H          2.7766297599       -0.9754393308        1.9299488542
 H          5.2182322760       -1.0070496903        2.2649213485
 H          6.7113049633       -0.0525842449        0.5460692774
 H          5.7526628757        0.9181910509       -1.5090276656
 H          3.3107902584        0.9443930029       -1.8423906235
 H          2.4599420270        2.4810720437        0.1060808289
 H          1.2133749853        4.5886907784        0.1598392499
 H         -1.2507026441        4.5837574552        0.0183426385
 H         -2.4768765676        2.4639188559       -0.1078646355
 H         -2.7792084230        0.6659121808        2.0604430678
 H         -5.2211309308        0.6446036326        2.3934012224
