  44
        -64.83614667
 C         -5.6739018108       -0.0009345943        0.0012345114
 C         -4.9809011778       -0.4113258847       -1.1253333819
 C         -3.5977491319       -0.4132891403       -1.1280459414
 C         -2.8906504080        0.0000539009       -0.0032867061
 C         -1.4119360751        0.0002424423       -0.0040140372
 C         -0.7144945438       -1.2157596328        0.0038459361
 C         -1.3907016093       -2.4637584398        0.0426544121
 C         -0.7048902297       -3.6388066838        0.0298082424
 C          0.7030740561       -3.6391605746       -0.0299664892
 C          1.3898788372       -2.4647018442       -0.0484178162
 C          0.7152199339       -1.2158324158       -0.0105380704
 C          1.4128673031        0.0004503660       -0.0021044814
 C          2.8911710135        0.0005429278       -0.0017775030
 C          3.5965750069       -0.4419112968        1.1132139544
 C          4.9796509881       -0.4407033541        1.1129492193
 C          5.6749292795       -0.0011567627       -0.0012310195
 C          4.9806470856        0.4392719289       -1.1156163567
 C          3.5974825607        0.4422676930       -1.1164028751
 C          0.7150049422        1.2165742033        0.0078066648
 C          1.3895100065        2.4652667522        0.0532322551
 C          0.7024837261        3.6396912386        0.0424669398
 C         -0.7053748654        3.6394223870       -0.0204944764
 C         -1.3909104159        2.4643967951       -0.0432407959
 C         -0.7146427056        1.2163171669       -0.0087110351
 C         -3.5944636907        0.4130612833        1.1236773304
 C         -4.9775797953        0.4100836177        1.1255179538
 H         -6.7539879969       -0.0015745891        0.0032140494
 H         -5.5201094800       -0.7318622265       -2.0050626521
 H         -3.0544873955       -0.7307653475       -2.0068339317
 H         -2.4698012643       -2.4633598224        0.0865840711
 H         -1.2337008660       -4.5802640314        0.0617218807
 H          1.2313947609       -4.5809870571       -0.0573939104
 H          2.4688252925       -2.4664250525       -0.0942350536
 H          3.0516923991       -0.7813158645        1.9827383162
 H          5.5170497376       -0.7842374663        1.9850403719
 H          6.7550179355       -0.0020429631       -0.0009743388
 H          5.5187147714        0.7826079354       -1.9873195866
 H          3.0535822084        0.7830284308       -1.9859817430
 H          2.4684250104        2.4667166841        0.1008173538
 H          1.2304613248        4.5814346936        0.0786620008
 H         -1.2342906372        4.5809562563       -0.0460395482
 H         -2.4698822986        2.4641634439       -0.0898127202
 H         -3.0485156582        0.7307621947        2.0006762032
 H         -5.5139421831        0.7295651732        2.0072493630
  44
        -64.83593419
 C         -5.6740496417        0.0037866416       -0.0642685105
 C         -4.9550737728       -0.3157906965       -1.2038419452
 C         -3.5723527249       -0.3205396969       -1.1739230834
 C         -2.8922534301       -0.0003269998       -0.0031917563
 C         -1.4129797328       -0.0001020026        0.0215907758
 C         -0.7162894139       -1.2160118570        0.0009035228
 C         -1.3906714449       -2.4654229892       -0.0015495194
 C         -0.7010810318       -3.6382656504       -0.0219077387
 C          0.7085691711       -3.6367144308       -0.0384746857
 C          1.3936313272       -2.4613813900       -0.0260884134
 C          0.7132099223       -1.2156046710       -0.0012871436
 C          1.4086281672       -0.0007599309        0.0214966588
 C          2.8900154394       -0.0003749307       -0.0036868888
 C          3.6188313104       -0.0536209709        1.1790424426
 C          5.0020095751       -0.0530071272        1.1475090456
 C          5.6701990674       -0.0002071842       -0.0642107838
 C          4.9502192287        0.0529293416       -1.2459286519
 C          3.5672411469        0.0533869091       -1.2169728083
 C          0.7135511227        1.2139824695        0.0563821883
 C          1.3951205894        2.4590172758        0.0885232052
 C          0.7112907009        3.6348501928        0.1101009018
 C         -0.6983410176        3.6376034926        0.0927597418
 C         -1.3890591515        2.4655615229        0.0630472555
 C         -0.7160631296        1.2154869229        0.0541454733
 C         -3.6213749409        0.3208046965        1.1369907448
 C         -5.0043192390        0.3201481083        1.1059638658
 H         -6.7538606831        0.0066217494       -0.0881054187
 H         -5.4733361899       -0.5615503536       -2.1190705424
 H         -3.0081502040       -0.5675925646       -2.0616828809
 H         -2.4706407030       -2.4675126057        0.0183618371
 H         -1.2283357825       -4.5811598519       -0.0219801927
 H          1.2382296355       -4.5780534443       -0.0546732749
 H          2.4739808251       -2.4556553721       -0.0306216097
 H          3.0938882550       -0.0949538706        2.1227799256
 H          5.5602310235       -0.0942065581        2.0716227429
 H          6.7500488867       -0.0005029918       -0.0878103174
 H          5.4675976672        0.0933365552       -2.1935045282
 H          3.0014577334        0.0929828232       -2.1368662068
 H          2.4754549938        2.4520408291        0.0947036858
 H          1.2417354532        4.5755429823        0.1363752412
 H         -1.2249113293        4.5808666492        0.1024492321
 H         -2.4689802054        2.4692934289        0.0443874011
 H         -3.0960248342        0.5675889282        2.0492613650
 H         -5.5617984709        0.5697410598        1.9979877475
  44
        -64.83579416
 C         -5.6630793652        0.0161532486        0.2237420347
 C         -5.0539475587        0.2915665778       -0.9889300800
 C         -3.6742500960        0.2825823985       -1.0927736032
 C         -2.8884535991       -0.0068571504        0.0173631192
 C         -1.4111555024       -0.0066183648       -0.0652448228
 C         -0.7130276925       -1.2212694223       -0.0422771413
 C         -1.3895878445       -2.4693646715       -0.0462316284
 C         -0.7017852038       -3.6434303253       -0.0432544553
 C          0.7077146833       -3.6420990168       -0.0343770625
 C          1.3940554245       -2.4671025607       -0.0315005965
 C          0.7162611122       -1.2196363955       -0.0365792659
 C          1.4118611515       -0.0030914097       -0.0590982598
 C          2.8887594960       -0.0005781495        0.0227677699
 C          3.5143823614       -0.3149137760        1.2253112128
 C          4.8938756174       -0.3008313896        1.3221044377
 C          5.6647766395        0.0222702855        0.2179055285
 C          5.0499614132        0.3302372483       -0.9840841285
 C          3.6699427034        0.3210615923       -1.0821624553
 C          0.7138871560        1.2103557972       -0.1332075480
 C          1.3876909497        2.4592427215       -0.1804948977
 C          0.6989768312        3.6307906606       -0.2461031586
 C         -0.7103306310        3.6286117456       -0.2470993183
 C         -1.3948238901        2.4545663316       -0.1826823851
 C         -0.7161791215        1.2084037477       -0.1344268874
 C         -3.5081998914       -0.2895905620        1.2306792539
 C         -4.8871288755       -0.2752277019        1.3331776937
 H         -6.7400981099        0.0284422309        0.3043937273
 H         -5.6562131473        0.5163615351       -1.8572796352
 H         -3.1969179783        0.4972949058       -2.0383512160
 H         -2.4696299760       -2.4682802418       -0.0667148803
 H         -1.2296388479       -4.5858833235       -0.0562929081
 H          1.2373140670       -4.5836377963       -0.0392130617
 H          2.4742077689       -2.4657260351       -0.0398746573
 H          2.9096780778       -0.5650433579        2.0854497334
 H          5.3688251941       -0.5424215830        2.2619690859
 H          6.7421082435        0.0334638834        0.2941860385
 H          5.6478738608        0.5804696291       -1.8484570034
 H          3.1880540053        0.5598896014       -2.0196226901
 H          2.4675091767        2.4628894464       -0.1638999689
 H          1.2266290729        4.5724599210       -0.2888485687
 H         -1.2410430065        4.5686443526       -0.2891645125
 H         -2.4747328936        2.4531906198       -0.1677218301
 H         -2.8987437470       -0.5145058484        2.0944192762
 H         -5.3575205069       -0.4907854669        2.2815989991
  44
        -64.83562960
 C         -5.6559625035        0.0053030324        0.2822230186
 C         -5.0729702578        0.2610832575       -0.9475904810
 C         -3.6954813091        0.2575297186       -1.0795506523
 C         -2.8861203647       -0.0065367289        0.0197756685
 C         -1.4102138653       -0.0032249696       -0.0872774999
 C         -0.7103733283       -1.2167954853       -0.0664326624
 C         -1.3858285241       -2.4654242517       -0.0600511168
 C         -0.6968834209       -3.6388023365       -0.0566714144
 C          0.7124925396       -3.6355731103       -0.0621064441
 C          1.3975167541       -2.4597635904       -0.0685237529
 C          0.7187243654       -1.2128633540       -0.0675173931
 C          1.4128239435        0.0053243879       -0.0870977501
 C          2.8875353340        0.0046371834        0.0201693869
 C          3.4836511609       -0.3581969048        1.2247012919
 C          4.8600737311       -0.3573777224        1.3548606757
 C          5.6586744323        0.0014888332        0.2818141423
 C          5.0739654379        0.3593836091       -0.9213545446
 C          3.6964858071        0.3630988070       -1.0527975230
 C          0.7125948814        1.2175173392       -0.1644899925
 C          1.3823850537        2.4686616863       -0.2094719559
 C          0.6902721583        3.6383314172       -0.2759070341
 C         -0.7190111170        3.6324824465       -0.2805966397
 C         -1.4000545480        2.4564743560       -0.2166768776
 C         -0.7176907264        1.2124058662       -0.1654206844
 C         -3.4796344945       -0.2688823138        1.2508490546
 C         -4.8561420628       -0.2602523164        1.3812847850
 H         -6.7311612454        0.0129190594        0.3845279347
 H         -5.6941047004        0.4660275702       -1.8075577909
 H         -3.2387632608        0.4568745543       -2.0386274395
 H         -2.4660045192       -2.4651908813       -0.0720514756
 H         -1.2236685031       -4.5818802488       -0.0596278924
 H          1.2434700043       -4.5763305775       -0.0704472082
 H          2.4774241804       -2.4583461084       -0.0895073734
 H          2.8567805825       -0.6366289775        2.0600140526
 H          5.3107112572       -0.6382517764        2.2958221341
 H          6.7339852074        0.0017131408        0.3833666753
 H          5.6940405154        0.6383241839       -1.7610393676
 H          3.2395704368        0.6376831014       -1.9929812803
 H          2.4620698884        2.4762318375       -0.1903311116
 H          1.2152775044        4.5815643470       -0.3168988862
 H         -1.2522205703        4.5709000324       -0.3259191165
 H         -2.4800046220        2.4513340113       -0.2052889751
 H         -2.8513821244       -0.4757409004        2.1054912876
 H         -5.3058994035       -0.4615462232        2.3428147257
  44
        -64.83549878
 C         -5.6512215298       -0.0031640920        0.3346147567
 C         -5.0849061909       -0.4215255867       -0.8578479462
 C         -3.7098669254       -0.4223488397       -1.0139468042
 C         -2.8850107757       -0.0003729907        0.0233522052
 C         -1.4119641331       -0.0047545105       -0.1025528004
 C         -0.7121965247       -1.2192140738       -0.1320179419
 C         -1.3805027386       -2.4718769202       -0.1239057595
 C         -0.6879106343       -3.6419053717       -0.1790741376
 C          0.7199493451       -3.6333150095       -0.2398591862
 C          1.4000171082       -2.4549903192       -0.2168329778
 C          0.7174384221       -1.2119733291       -0.1474540548
 C          1.4122118419        0.0052364326       -0.1027832605
 C          2.8851916110        0.0002928243        0.0230108140
 C          3.4635077195       -0.4385241749        1.2110329163
 C          4.8372422305       -0.4354562334        1.3661652550
 C          5.6514680268        0.0017534625        0.3345242183
 C          5.0849023879        0.4330748664       -0.8531569762
 C          3.7099131825        0.4346144949       -1.0093299868
 C          0.7123160884        1.2198668208       -0.1261311257
 C          1.3801647675        2.4727151946       -0.1112642042
 C          0.6872505823        3.6428245874       -0.1606753581
 C         -0.7206073428        3.6343106692       -0.2213728690
 C         -1.4003273590        2.4557147906       -0.2040014770
 C         -0.7173178306        1.2125846305       -0.1415710058
 C         -3.4629559509        0.4253341110        1.2162602706
 C         -4.8367271089        0.4214193799        1.3713351556
 H         -6.7244933790       -0.0072550979        0.4560841500
 H         -5.7174610473       -0.7501244664       -1.6698162620
 H         -3.2676070576       -0.7444489014       -1.9461120218
 H         -2.4593294861       -2.4804734504       -0.0788807459
 H         -1.2117590887       -4.5866718368       -0.1799406997
 H          1.2530763040       -4.5708012766       -0.3016796681
 H          2.4791003410       -2.4472866038       -0.2634499114
 H          2.8244064864       -0.7762637190        2.0145782689
 H          5.2734814176       -0.7742059257        2.2946982370
 H          6.7247715687        0.0050508318        0.4560177583
 H          5.7172992247        0.7704693885       -1.6616548987
 H          3.2676197696        0.7661726651       -1.9380982827
 H          2.4589918292        2.4816165267       -0.0667106012
 H          1.2109491090        4.5876748161       -0.1574867758
 H         -1.2539104006        4.5719701318       -0.2791538439
 H         -2.4794700814        2.4477883337       -0.2493088081
 H         -2.8236127034        0.7537571917        2.0234569624
 H         -5.2727471475        0.7492085461        2.3039191677
  44
        -64.83520490
 C         -5.6417021126       -0.0021844866        0.4011139300
 C         -5.0997459347       -0.4556313742       -0.7897934677
 C         -3.7285110309       -0.4566346128       -0.9763749111
 C         -2.8824686004       -0.0005289968        0.0289791596
 C         -1.4123498158       -0.0062854199       -0.1221792543
 C         -0.7111392498       -1.2201596923       -0.1580240324
 C         -1.3759989583       -2.4746417592       -0.1476590719
 C         -0.6813385372       -3.6428494950       -0.2151324616
 C          0.7257436436       -3.6309099843       -0.2892796578
 C          1.4031907705       -2.4512132325       -0.2617020917
 C          0.7184333951       -1.2103262233       -0.1787640609
 C          1.4123286550        0.0072773034       -0.1242651831
 C          2.8825167086        0.0003339340        0.0269232869
 C          3.4348273381       -0.4641435239        1.2179240265
 C          4.8043499369       -0.4623364326        1.4051333115
 C          5.6411861318       -0.0006956612        0.4026888944
 C          5.1011139961        0.4551519522       -0.7880886255
 C          3.7300587763        0.4575687619       -0.9765037753
 C          0.7111512107        1.2212906282       -0.1512110905
 C          1.3764718776        2.4754969206       -0.1354433077
 C          0.6819442220        3.6442518022       -0.1935664491
 C         -0.7253831061        3.6330241109       -0.2638008828
 C         -1.4030295537        2.4533146757       -0.2430958766
 C         -0.7184685162        1.2116667106       -0.1696975602
 C         -3.4366582134        0.4611923195        1.2201450658
 C         -4.8064979300        0.4580931226        1.4054999391
 H         -6.7119807184       -0.0063030110        0.5462958129
 H         -5.7486932768       -0.8109304196       -1.5772057639
 H         -3.3063249656       -0.8036834355       -1.9088830358
 H         -2.4543159050       -2.4869253371       -0.0936207994
 H         -1.2034166695       -4.5885912665       -0.2189686329
 H          1.2603566201       -4.5665086494       -0.3649400253
 H          2.4818785475       -2.4406293361       -0.3165212476
 H          2.7779805110       -0.8197646800        1.9991666867
 H          5.2195347870       -0.8207555160        2.3359757853
 H          6.7112227249        0.0029102810        0.5495926996
 H          5.7512755113        0.8121933161       -1.5737031084
 H          3.3094615622        0.8079136824       -1.9084949931
 H          2.4548833591        2.4869545470       -0.0830131230
 H          1.2040377039        4.5899867811       -0.1903288128
 H         -1.2599795476        4.5692475746       -0.3314424625
 H         -2.4818217902        2.4434582113       -0.2958395011
 H         -2.7812084418        0.8154121559        2.0032091119
 H         -5.2231891440        0.8145691131        2.3364211472
