  44
  -64.8361466700000       0.135869795545330      !
 C         -5.6739018108       -0.0009345943        0.0012345114
 C         -4.9809011778       -0.4113258847       -1.1253333819
 C         -3.5977491319       -0.4132891403       -1.1280459414
 C         -2.8906504080        0.0000539009       -0.0032867061
 C         -1.4119360751        0.0002424423       -0.0040140372
 C         -0.7144945438       -1.2157596328        0.0038459361
 C         -1.3907016093       -2.4637584398        0.0426544121
 C         -0.7048902297       -3.6388066838        0.0298082424
 C          0.7030740561       -3.6391605746       -0.0299664892
 C          1.3898788372       -2.4647018442       -0.0484178162
 C          0.7152199339       -1.2158324158       -0.0105380704
 C          1.4128673031        0.0004503660       -0.0021044814
 C          2.8911710135        0.0005429278       -0.0017775030
 C          3.5965750069       -0.4419112968        1.1132139544
 C          4.9796509881       -0.4407033541        1.1129492193
 C          5.6749292795       -0.0011567627       -0.0012310195
 C          4.9806470856        0.4392719289       -1.1156163567
 C          3.5974825607        0.4422676930       -1.1164028751
 C          0.7150049422        1.2165742033        0.0078066648
 C          1.3895100065        2.4652667522        0.0532322551
 C          0.7024837261        3.6396912386        0.0424669398
 C         -0.7053748654        3.6394223870       -0.0204944764
 C         -1.3909104159        2.4643967951       -0.0432407959
 C         -0.7146427056        1.2163171669       -0.0087110351
 C         -3.5944636907        0.4130612833        1.1236773304
 C         -4.9775797953        0.4100836177        1.1255179538
 H         -6.7539879969       -0.0015745891        0.0032140494
 H         -5.5201094800       -0.7318622265       -2.0050626521
 H         -3.0544873955       -0.7307653475       -2.0068339317
 H         -2.4698012643       -2.4633598224        0.0865840711
 H         -1.2337008660       -4.5802640314        0.0617218807
 H          1.2313947609       -4.5809870571       -0.0573939104
 H          2.4688252925       -2.4664250525       -0.0942350536
 H          3.0516923991       -0.7813158645        1.9827383162
 H          5.5170497376       -0.7842374663        1.9850403719
 H          6.7550179355       -0.0020429631       -0.0009743388
 H          5.5187147714        0.7826079354       -1.9873195866
 H          3.0535822084        0.7830284308       -1.9859817430
 H          2.4684250104        2.4667166841        0.1008173538
 H          1.2304613248        4.5814346936        0.0786620008
 H         -1.2342906372        4.5809562563       -0.0460395482
 H         -2.4698822986        2.4641634439       -0.0898127202
 H         -3.0485156582        0.7307621947        2.0006762032
 H         -5.5139421831        0.7295651732        2.0072493630
  44
  -64.8361430800000       0.135354616313134      !
 C         -5.6744771727       -0.0041786213       -0.0025810332
 C         -4.9790234246        0.4351675958       -1.1166949518
 C         -3.5959413074        0.4399314268       -1.1153202210
 C         -2.8909395950        0.0006245852        0.0010666253
 C         -1.4125286047        0.0013912365        0.0018872403
 C         -0.7146402010       -1.2146095916       -0.0111744808
 C         -1.3893149900       -2.4631003282       -0.0599056646
 C         -0.7026528368       -3.6376150549       -0.0441517101
 C          0.7047983461       -3.6374561201        0.0274670221
 C          1.3905834351       -2.4625589542        0.0497523397
 C          0.7149514976       -1.2142688138        0.0081121478
 C          1.4122836264        0.0019807392        0.0007651501
 C          2.8908204933        0.0011837881       -0.0003367102
 C          3.5978877523        0.4285606536        1.1193252530
 C          4.9810257977        0.4226016132        1.1184166449
 C          5.6742124050       -0.0055726106       -0.0014611170
 C          4.9780666946       -0.4297334220       -1.1209467620
 C          3.5949578427       -0.4288604216       -1.1207663057
 C          0.7145312172        1.2178963215       -0.0061335833
 C          1.3896110693        2.4663426700       -0.0492554335
 C          0.7031650066        3.6409523969       -0.0279126372
 C         -0.7041724239        3.6406106964        0.0447337302
 C         -1.3903064478        2.4657768866        0.0623842031
 C         -0.7151087522        1.2175843907        0.0142819818
 C         -3.5973501639       -0.4405766540        1.1158114561
 C         -4.9804787812       -0.4406476531        1.1135632384
 H         -6.7545357911       -0.0063343425       -0.0040833893
 H         -5.5162463999        0.7753615473       -1.9901634623
 H         -3.0508831381        0.7789601257       -1.9848910362
 H         -2.4679601652       -2.4639499994       -0.1133358342
 H         -1.2305568435       -4.5792862561       -0.0825774714
 H          1.2333155050       -4.5790283287        0.0602996469
 H          2.4692646564       -2.4628262878        0.1025953739
 H          3.0544752286        0.7592620750        1.9931235863
 H          5.5199005590        0.7531018915        1.9944999011
 H          6.7542779387       -0.0090231288       -0.0016089570
 H          5.5146679141       -0.7637783851       -1.9973155271
 H          3.0491915144       -0.7572563175       -1.9940619477
 H          2.4682089438        2.4669692831       -0.1027631118
 H          1.2310627965        4.5827909899       -0.0618920535
 H         -1.2324635873        4.5822473162        0.0820166485
 H         -2.4689441294        2.4661690843        0.1165094386
 H         -3.0535036729       -0.7778255841        1.9868223482
 H         -5.5188004367       -0.7825550550        1.9857864947
  44
  -64.8360856100000       0.127368398691903      !
 C         -5.6728032834        0.0043648999       -0.0649294483
 C         -4.9540699691       -0.3042813210       -1.2076567159
 C         -3.5713306290       -0.3091106293       -1.1781531326
 C         -2.8907826123        0.0002661032       -0.0048051574
 C         -1.4117516704       -0.0002678782        0.0201817660
 C         -0.7154190891       -1.2156258180       -0.0278697786
 C         -1.3927146203       -2.4632207357       -0.0532525036
 C         -0.7065040255       -3.6376047537       -0.0884192000
 C          0.7028582827       -3.6382496322       -0.0912084596
 C          1.3902631500       -2.4644949486       -0.0575673619
 C          0.7141687478       -1.2162975411       -0.0289424977
 C          1.4117121325       -0.0017114805        0.0210212135
 C          2.8907931181       -0.0019145636       -0.0041078813
 C          3.6205771524        0.3037851410        1.1398554776
 C          5.0034924097        0.3043721111        1.1080662765
 C          5.6727585340        0.0045530832       -0.0665103204
 C          4.9532874320       -0.3001935596       -1.2097780136
 C          3.5706000976       -0.3060233082       -1.1791906186
 C          0.7155213091        1.2131203576        0.0838601850
 C          1.3926706645        2.4604841788        0.1231165510
 C          0.7065597399        3.6345238198        0.1694432680
 C         -0.7028024346        3.6354176744        0.1652389457
 C         -1.3901040188        2.4621932532        0.1163506519
 C         -0.7143135957        1.2139311412        0.0819017699
 C         -3.6198730261        0.3107488810        1.1383914333
 C         -5.0028047573        0.3101826352        1.1077552378
 H         -6.7526245226        0.0064060080       -0.0883165571
 H         -5.4725361150       -0.5425249454       -2.1251618147
 H         -3.0073780419       -0.5483775194       -2.0685571291
 H         -2.4726611035       -2.4628856762       -0.0353282995
 H         -1.2359566878       -4.5791013898       -0.1050323658
 H          1.2312991780       -4.5802128963       -0.1114527113
 H          2.4702617783       -2.4650665133       -0.0439043273
 H          3.0958198966        0.5364857674        2.0555331891
 H          5.5610114086        0.5408042636        2.0028017737
 H          6.7525450706        0.0081146626       -0.0909547236
 H          5.4710919249       -0.5343976913       -2.1285652040
 H          3.0060236760       -0.5412579087       -2.0702519381
 H          2.4726215279        2.4604709147        0.1104233564
 H          1.2361103532        4.5755317283        0.2009733598
 H         -1.2312976093        4.5771708514        0.1925619333
 H         -2.4699680133        2.4634319594        0.0980841220
 H         -3.0944603744        0.5477742118        2.0527177951
 H         -5.5597717294        0.5501805279        2.0020023562
  44
  -64.8360731800000       0.125704045964844      !
 C         -5.6723867484       -0.0006144442       -0.0858092082
 C         -4.9449704747        0.3278553683       -1.2175382025
 C         -3.5625879962        0.3314216559       -1.1774846705
 C         -2.8905384341        0.0015284277       -0.0045505212
 C         -1.4119112015        0.0005309410        0.0278148670
 C         -0.7152016508       -1.2143131396        0.0883758724
 C         -1.3918944026       -2.4621368792        0.1227532886
 C         -0.7057858783       -3.6362520167        0.1680579100
 C          0.7034254197       -3.6367385006        0.1653890056
 C          1.3903560456       -2.4631960699        0.1182924223
 C          0.7147191238       -1.2147545725        0.0867436640
 C          1.4120978645       -0.0002400785        0.0259981457
 C          2.8906661072       -0.0003038219       -0.0062564145
 C          3.6273483487       -0.3397756464        1.1239520619
 C          5.0101025906       -0.3395866087        1.0839494016
 C          5.6727159528       -0.0043781235       -0.0849569822
 C          4.9465254283        0.3340326157       -1.2145558882
 C          3.5641132461        0.3384108267       -1.1758546953
 C          0.7151320015        1.2152686363       -0.0171313521
 C          1.3917520686        2.4633359786       -0.0374787266
 C          0.7052218828        3.6377410235       -0.0668807693
 C         -0.7040368318        3.6380048744       -0.0666725909
 C         -1.3908429905        2.4637760624       -0.0368629565
 C         -0.7144471013        1.2155724930       -0.0164221482
 C         -3.6284099269       -0.3281138508        1.1275869606
 C         -5.0110865440       -0.3267125083        1.0863697912
 H         -6.7520958408       -0.0019723595       -0.1173128360
 H         -5.4563185142        0.5831911264       -2.1344288142
 H         -2.9918860246        0.5853232972       -2.0594848992
 H         -2.4717832183       -2.4627692374        0.1079629449
 H         -1.2352866469       -4.5773987120        0.1968442964
 H          1.2322992635       -4.5782874180        0.1915320571
 H          2.4701042894       -2.4649184756        0.0994459798
 H          3.1082222197       -0.5984999030        2.0358901767
 H          5.5728134361       -0.6025140242        1.9679921371
 H          6.7523740659       -0.0066995198       -0.1156359707
 H          5.4589335453        0.5951998225       -2.1292060214
 H          2.9945140795        0.5999596242       -2.0564468263
 H          2.4716557747        2.4638196676       -0.0201744070
 H          1.2344601189        4.5793992803       -0.0811264946
 H         -1.2329600548        4.5798655457       -0.0809079003
 H         -2.4707416713        2.4643315741       -0.0193959193
 H         -3.1103121196       -0.5803735968        2.0419695497
 H         -5.5748971228       -0.5819779817        1.9719554432
  44
  -64.8359341900000       0.108511027258286      !
 C         -5.6740496417        0.0037866416       -0.0642685105
 C         -4.9550737728       -0.3157906965       -1.2038419452
 C         -3.5723527249       -0.3205396969       -1.1739230834
 C         -2.8922534301       -0.0003269998       -0.0031917563
 C         -1.4129797328       -0.0001020026        0.0215907758
 C         -0.7162894139       -1.2160118570        0.0009035228
 C         -1.3906714449       -2.4654229892       -0.0015495194
 C         -0.7010810318       -3.6382656504       -0.0219077387
 C          0.7085691711       -3.6367144308       -0.0384746857
 C          1.3936313272       -2.4613813900       -0.0260884134
 C          0.7132099223       -1.2156046710       -0.0012871436
 C          1.4086281672       -0.0007599309        0.0214966588
 C          2.8900154394       -0.0003749307       -0.0036868888
 C          3.6188313104       -0.0536209709        1.1790424426
 C          5.0020095751       -0.0530071272        1.1475090456
 C          5.6701990674       -0.0002071842       -0.0642107838
 C          4.9502192287        0.0529293416       -1.2459286519
 C          3.5672411469        0.0533869091       -1.2169728083
 C          0.7135511227        1.2139824695        0.0563821883
 C          1.3951205894        2.4590172758        0.0885232052
 C          0.7112907009        3.6348501928        0.1101009018
 C         -0.6983410176        3.6376034926        0.0927597418
 C         -1.3890591515        2.4655615229        0.0630472555
 C         -0.7160631296        1.2154869229        0.0541454733
 C         -3.6213749409        0.3208046965        1.1369907448
 C         -5.0043192390        0.3201481083        1.1059638658
 H         -6.7538606831        0.0066217494       -0.0881054187
 H         -5.4733361899       -0.5615503536       -2.1190705424
 H         -3.0081502040       -0.5675925646       -2.0616828809
 H         -2.4706407030       -2.4675126057        0.0183618371
 H         -1.2283357825       -4.5811598519       -0.0219801927
 H          1.2382296355       -4.5780534443       -0.0546732749
 H          2.4739808251       -2.4556553721       -0.0306216097
 H          3.0938882550       -0.0949538706        2.1227799256
 H          5.5602310235       -0.0942065581        2.0716227429
 H          6.7500488867       -0.0005029918       -0.0878103174
 H          5.4675976672        0.0933365552       -2.1935045282
 H          3.0014577334        0.0929828232       -2.1368662068
 H          2.4754549938        2.4520408291        0.0947036858
 H          1.2417354532        4.5755429823        0.1363752412
 H         -1.2249113293        4.5808666492        0.1024492321
 H         -2.4689802054        2.4692934289        0.0443874011
 H         -3.0960248342        0.5675889282        2.0492613650
 H         -5.5617984709        0.5697410598        1.9979877475
  44
  -64.8357941600000       9.356653409994746E-002 !
 C         -5.6630793652        0.0161532486        0.2237420347
 C         -5.0539475587        0.2915665778       -0.9889300800
 C         -3.6742500960        0.2825823985       -1.0927736032
 C         -2.8884535991       -0.0068571504        0.0173631192
 C         -1.4111555024       -0.0066183648       -0.0652448228
 C         -0.7130276925       -1.2212694223       -0.0422771413
 C         -1.3895878445       -2.4693646715       -0.0462316284
 C         -0.7017852038       -3.6434303253       -0.0432544553
 C          0.7077146833       -3.6420990168       -0.0343770625
 C          1.3940554245       -2.4671025607       -0.0315005965
 C          0.7162611122       -1.2196363955       -0.0365792659
 C          1.4118611515       -0.0030914097       -0.0590982598
 C          2.8887594960       -0.0005781495        0.0227677699
 C          3.5143823614       -0.3149137760        1.2253112128
 C          4.8938756174       -0.3008313896        1.3221044377
 C          5.6647766395        0.0222702855        0.2179055285
 C          5.0499614132        0.3302372483       -0.9840841285
 C          3.6699427034        0.3210615923       -1.0821624553
 C          0.7138871560        1.2103557972       -0.1332075480
 C          1.3876909497        2.4592427215       -0.1804948977
 C          0.6989768312        3.6307906606       -0.2461031586
 C         -0.7103306310        3.6286117456       -0.2470993183
 C         -1.3948238901        2.4545663316       -0.1826823851
 C         -0.7161791215        1.2084037477       -0.1344268874
 C         -3.5081998914       -0.2895905620        1.2306792539
 C         -4.8871288755       -0.2752277019        1.3331776937
 H         -6.7400981099        0.0284422309        0.3043937273
 H         -5.6562131473        0.5163615351       -1.8572796352
 H         -3.1969179783        0.4972949058       -2.0383512160
 H         -2.4696299760       -2.4682802418       -0.0667148803
 H         -1.2296388479       -4.5858833235       -0.0562929081
 H          1.2373140670       -4.5836377963       -0.0392130617
 H          2.4742077689       -2.4657260351       -0.0398746573
 H          2.9096780778       -0.5650433579        2.0854497334
 H          5.3688251941       -0.5424215830        2.2619690859
 H          6.7421082435        0.0334638834        0.2941860385
 H          5.6478738608        0.5804696291       -1.8484570034
 H          3.1880540053        0.5598896014       -2.0196226901
 H          2.4675091767        2.4628894464       -0.1638999689
 H          1.2266290729        4.5724599210       -0.2888485687
 H         -1.2410430065        4.5686443526       -0.2891645125
 H         -2.4747328936        2.4531906198       -0.1677218301
 H         -2.8987437470       -0.5145058484        2.0944192762
 H         -5.3575205069       -0.4907854669        2.2815989991
  44
  -64.8356296000000       7.861293354103374E-002 !
 C         -5.6559625035        0.0053030324        0.2822230186
 C         -5.0729702578        0.2610832575       -0.9475904810
 C         -3.6954813091        0.2575297186       -1.0795506523
 C         -2.8861203647       -0.0065367289        0.0197756685
 C         -1.4102138653       -0.0032249696       -0.0872774999
 C         -0.7103733283       -1.2167954853       -0.0664326624
 C         -1.3858285241       -2.4654242517       -0.0600511168
 C         -0.6968834209       -3.6388023365       -0.0566714144
 C          0.7124925396       -3.6355731103       -0.0621064441
 C          1.3975167541       -2.4597635904       -0.0685237529
 C          0.7187243654       -1.2128633540       -0.0675173931
 C          1.4128239435        0.0053243879       -0.0870977501
 C          2.8875353340        0.0046371834        0.0201693869
 C          3.4836511609       -0.3581969048        1.2247012919
 C          4.8600737311       -0.3573777224        1.3548606757
 C          5.6586744323        0.0014888332        0.2818141423
 C          5.0739654379        0.3593836091       -0.9213545446
 C          3.6964858071        0.3630988070       -1.0527975230
 C          0.7125948814        1.2175173392       -0.1644899925
 C          1.3823850537        2.4686616863       -0.2094719559
 C          0.6902721583        3.6383314172       -0.2759070341
 C         -0.7190111170        3.6324824465       -0.2805966397
 C         -1.4000545480        2.4564743560       -0.2166768776
 C         -0.7176907264        1.2124058662       -0.1654206844
 C         -3.4796344945       -0.2688823138        1.2508490546
 C         -4.8561420628       -0.2602523164        1.3812847850
 H         -6.7311612454        0.0129190594        0.3845279347
 H         -5.6941047004        0.4660275702       -1.8075577909
 H         -3.2387632608        0.4568745543       -2.0386274395
 H         -2.4660045192       -2.4651908813       -0.0720514756
 H         -1.2236685031       -4.5818802488       -0.0596278924
 H          1.2434700043       -4.5763305775       -0.0704472082
 H          2.4774241804       -2.4583461084       -0.0895073734
 H          2.8567805825       -0.6366289775        2.0600140526
 H          5.3107112572       -0.6382517764        2.2958221341
 H          6.7339852074        0.0017131408        0.3833666753
 H          5.6940405154        0.6383241839       -1.7610393676
 H          3.2395704368        0.6376831014       -1.9929812803
 H          2.4620698884        2.4762318375       -0.1903311116
 H          1.2152775044        4.5815643470       -0.3168988862
 H         -1.2522205703        4.5709000324       -0.3259191165
 H         -2.4800046220        2.4513340113       -0.2052889751
 H         -2.8513821244       -0.4757409004        2.1054912876
 H         -5.3058994035       -0.4615462232        2.3428147257
  44
  -64.8356027100000       7.640753947094224E-002 !
 C         -5.6536288283       -0.0115313283        0.3072974842
 C         -5.0795654079       -0.3532343318       -0.9056545153
 C         -3.7033182327       -0.3499479140       -1.0506728737
 C         -2.8862664930        0.0010315964        0.0182095382
 C         -1.4113421296       -0.0012993533       -0.0971053404
 C         -0.7129316186       -1.2159985849       -0.1229783281
 C         -1.3841607512       -2.4670429918       -0.1226745647
 C         -0.6926249023       -3.6380338951       -0.1685578415
 C          0.7161359510       -3.6317279318       -0.2114560896
 C          1.3983308451       -2.4547116300       -0.1866078395
 C          0.7166592443       -1.2106482324       -0.1304536822
 C          1.4112266794        0.0060941010       -0.0893935289
 C          2.8860258710        0.0014927843        0.0250165052
 C          3.4758537328       -0.3703679814        1.2295663550
 C          4.8517824085       -0.3695681920        1.3661370456
 C          5.6551642992       -0.0028215743        0.2992523557
 C          5.0761740298        0.3630257236       -0.9043151334
 C          3.6992501367        0.3680097999       -1.0417974317
 C          0.7128147678        1.2208537658       -0.1138340030
 C          1.3832069181        2.4723573715       -0.1009101101
 C          0.6913103352        3.6431412246       -0.1463445978
 C         -0.7170986291        3.6365692615       -0.2018060981
 C         -1.3988522690        2.4591978929       -0.1864294321
 C         -0.7167235755        1.2153674601       -0.1300750835
 C         -3.4712245652        0.3504493050        1.2318678650
 C         -4.8462580488        0.3410226888        1.3759315624
 H         -6.7278132569       -0.0191505321        0.4199638543
 H         -5.7068960765       -0.6249360281       -1.7423361447
 H         -3.2539565859       -0.6160556317       -1.9969433684
 H         -2.4636804164       -2.4721823797       -0.0910913331
 H         -1.2176420829       -4.5821429417       -0.1750723168
 H          1.2481207200       -4.5705012208       -0.2625557806
 H          2.4779831244       -2.4481931738       -0.2203353976
 H          2.8449179509       -0.6550494167        2.0597027085
 H          5.2982546226       -0.6559844717        2.3073982062
 H          6.7299889613       -0.0026632271        0.4059292805
 H          5.7000118173        0.6482158342       -1.7390622152
 H          3.2458539656        0.6541243024       -1.9802440855
 H          2.4624241307        2.4780596209       -0.0603028592
 H          1.2157710581        4.5875763558       -0.1435177247
 H         -1.2488695351        4.5754433570       -0.2534806889
 H         -2.4782949551        2.4516000355       -0.2272920822
 H         -2.8366570258        0.6225260443        2.0634949983
 H         -5.2887986800        0.6093059157        2.3243506948
  44
  -64.8354987800000       6.844997493765359E-002 !
 C         -5.6512215298       -0.0031640920        0.3346147567
 C         -5.0849061909       -0.4215255867       -0.8578479462
 C         -3.7098669254       -0.4223488397       -1.0139468042
 C         -2.8850107757       -0.0003729907        0.0233522052
 C         -1.4119641331       -0.0047545105       -0.1025528004
 C         -0.7121965247       -1.2192140738       -0.1320179419
 C         -1.3805027386       -2.4718769202       -0.1239057595
 C         -0.6879106343       -3.6419053717       -0.1790741376
 C          0.7199493451       -3.6333150095       -0.2398591862
 C          1.4000171082       -2.4549903192       -0.2168329778
 C          0.7174384221       -1.2119733291       -0.1474540548
 C          1.4122118419        0.0052364326       -0.1027832605
 C          2.8851916110        0.0002928243        0.0230108140
 C          3.4635077195       -0.4385241749        1.2110329163
 C          4.8372422305       -0.4354562334        1.3661652550
 C          5.6514680268        0.0017534625        0.3345242183
 C          5.0849023879        0.4330748664       -0.8531569762
 C          3.7099131825        0.4346144949       -1.0093299868
 C          0.7123160884        1.2198668208       -0.1261311257
 C          1.3801647675        2.4727151946       -0.1112642042
 C          0.6872505823        3.6428245874       -0.1606753581
 C         -0.7206073428        3.6343106692       -0.2213728690
 C         -1.4003273590        2.4557147906       -0.2040014770
 C         -0.7173178306        1.2125846305       -0.1415710058
 C         -3.4629559509        0.4253341110        1.2162602706
 C         -4.8367271089        0.4214193799        1.3713351556
 H         -6.7244933790       -0.0072550979        0.4560841500
 H         -5.7174610473       -0.7501244664       -1.6698162620
 H         -3.2676070576       -0.7444489014       -1.9461120218
 H         -2.4593294861       -2.4804734504       -0.0788807459
 H         -1.2117590887       -4.5866718368       -0.1799406997
 H          1.2530763040       -4.5708012766       -0.3016796681
 H          2.4791003410       -2.4472866038       -0.2634499114
 H          2.8244064864       -0.7762637190        2.0145782689
 H          5.2734814176       -0.7742059257        2.2946982370
 H          6.7247715687        0.0050508318        0.4560177583
 H          5.7172992247        0.7704693885       -1.6616548987
 H          3.2676197696        0.7661726651       -1.9380982827
 H          2.4589918292        2.4816165267       -0.0667106012
 H          1.2109491090        4.5876748161       -0.1574867758
 H         -1.2539104006        4.5719701318       -0.2791538439
 H         -2.4794700814        2.4477883337       -0.2493088081
 H         -2.8236127034        0.7537571917        2.0234569624
 H         -5.2727471475        0.7492085461        2.3039191677
  44
  -64.8352049000000       5.015513417692594E-002 !
 C         -5.6417021126       -0.0021844866        0.4011139300
 C         -5.0997459347       -0.4556313742       -0.7897934677
 C         -3.7285110309       -0.4566346128       -0.9763749111
 C         -2.8824686004       -0.0005289968        0.0289791596
 C         -1.4123498158       -0.0062854199       -0.1221792543
 C         -0.7111392498       -1.2201596923       -0.1580240324
 C         -1.3759989583       -2.4746417592       -0.1476590719
 C         -0.6813385372       -3.6428494950       -0.2151324616
 C          0.7257436436       -3.6309099843       -0.2892796578
 C          1.4031907705       -2.4512132325       -0.2617020917
 C          0.7184333951       -1.2103262233       -0.1787640609
 C          1.4123286550        0.0072773034       -0.1242651831
 C          2.8825167086        0.0003339340        0.0269232869
 C          3.4348273381       -0.4641435239        1.2179240265
 C          4.8043499369       -0.4623364326        1.4051333115
 C          5.6411861318       -0.0006956612        0.4026888944
 C          5.1011139961        0.4551519522       -0.7880886255
 C          3.7300587763        0.4575687619       -0.9765037753
 C          0.7111512107        1.2212906282       -0.1512110905
 C          1.3764718776        2.4754969206       -0.1354433077
 C          0.6819442220        3.6442518022       -0.1935664491
 C         -0.7253831061        3.6330241109       -0.2638008828
 C         -1.4030295537        2.4533146757       -0.2430958766
 C         -0.7184685162        1.2116667106       -0.1696975602
 C         -3.4366582134        0.4611923195        1.2201450658
 C         -4.8064979300        0.4580931226        1.4054999391
 H         -6.7119807184       -0.0063030110        0.5462958129
 H         -5.7486932768       -0.8109304196       -1.5772057639
 H         -3.3063249656       -0.8036834355       -1.9088830358
 H         -2.4543159050       -2.4869253371       -0.0936207994
 H         -1.2034166695       -4.5885912665       -0.2189686329
 H          1.2603566201       -4.5665086494       -0.3649400253
 H          2.4818785475       -2.4406293361       -0.3165212476
 H          2.7779805110       -0.8197646800        1.9991666867
 H          5.2195347870       -0.8207555160        2.3359757853
 H          6.7112227249        0.0029102810        0.5495926996
 H          5.7512755113        0.8121933161       -1.5737031084
 H          3.3094615622        0.8079136824       -1.9084949931
 H          2.4548833591        2.4869545470       -0.0830131230
 H          1.2040377039        4.5899867811       -0.1903288128
 H         -1.2599795476        4.5692475746       -0.3314424625
 H         -2.4818217902        2.4434582113       -0.2958395011
 H         -2.7812084418        0.8154121559        2.0032091119
 H         -5.2231891440        0.8145691131        2.3364211472
