72
 energy: -113.932245718442 gnorm: 0.000030808081 xtb: 6.7.1 (edcfbbe)
C           -2.25463687403329       -0.02025884753782       -3.18983811787229
C           -3.16398982853506       -0.01258149733878       -2.21014468035991
C           -2.82125335917916       -0.00148206897856       -0.73810906409389
C           -1.34792231581857       -0.00241474809900       -0.47648668776137
C           -0.44023532308379       -0.00988392233928       -1.47753738068352
C           -0.85682586270793       -0.01872231897982       -2.88734534611735
C            0.25151682921416       -0.02449231690555       -3.66888938952483
C            1.42166293614522       -0.01943340330552       -2.81337705979103
C            0.98159933020055       -0.01074914998413       -1.47439810456998
C            1.89558073207457       -0.00569625941733       -0.28038899512638
C            3.31759555698755       -0.00351701595377       -0.75196490355656
C            4.49678135312906        0.00582870909044        0.04931302519617
C            4.69794600906504        0.01775099941282        1.41916307265258
C            6.00507117351528        0.02511167716554        1.90335300006212
C            7.08992774163681        0.02063498633856        1.04005548663487
C            6.90901212164239        0.00874339461936       -0.34197927638172
C            5.61786825387780        0.00157897796218       -0.84452538689347
C            5.11453891010174       -0.00970354386094       -2.17504671773305
C            3.70982393824546       -0.01253772492967       -2.11841110440941
C            2.76225343245692       -0.02129327782913       -3.16399464072492
C            1.66692310487436       -1.29790816229811        0.49044401397982
C            1.99006942260893       -2.48038876308542       -0.17232101160306
C            1.81269155781802       -3.71585713783855        0.41785205029310
C            1.29784411242865       -3.79583011710057        1.70283835059920
C            0.96622484989879       -2.63831001516404        2.37431209396559
C            1.14940242444615       -1.39404041878367        1.77389280532760
S            0.67012456298480       -0.00495655285361        2.75404789437037
C            1.14381805742143        1.38398669463048        1.77078041997873
C            0.95640138554652        2.62879657360110        2.36869286092316
C            1.28325609105021        3.78608065806569        1.69445660384317
C            1.79725349223365        3.70528408770620        0.40919417700073
C            1.97902543361654        2.46920568749182       -0.17841063817965
C            1.66097094189449        1.28698368781319        0.48722254816166
C           -3.44195286937692       -1.25435510797996       -0.12954655550188
C           -2.65495060527290       -2.37489300420102        0.11226099533015
C           -3.20336375281502       -3.54689110740402        0.60027835929831
C           -4.56297808338784       -3.62319236844065        0.85473846841929
C           -5.36195802471428       -2.52134365459498        0.62314608657845
C           -4.80412779300492       -1.34652674779752        0.13303067197171
S           -5.90558351864551        0.00985001538048       -0.14880090570682
C           -4.79816129306014        1.36545334025340        0.11255270621462
C           -5.35094540694224        2.54982616600445        0.58506539867305
C           -4.54713111417374        3.65132048915298        0.80101953187467
C           -3.18774931213833        3.56508191780379        0.54850093663066
C           -2.64434924807293        2.38362582947641        0.07795385534742
C           -3.43634551127107        1.26329317334843       -0.14834659756003
H           -2.56087392907968       -0.02789096711923       -4.22714534469129
H           -4.22039852092860       -0.01440350183330       -2.43730858359862
H           -1.05719209542082        0.00409915745617        0.56365360822599
H            0.28932871726962       -0.03136843451155       -4.74343871919654
H            3.86377272947761        0.02157022041194        2.10485093754602
H            6.17355160164207        0.03453024602576        2.97028008763195
H            8.09159465800777        0.02646126647652        1.44428411467299
H            7.76073319712757        0.00538953858344       -1.00672195314630
H            5.70766444898497       -0.01488542978600       -3.07130785832519
H            3.07870586197738       -0.02794175030173       -4.19564409417124
H            2.38552520564344       -2.41584844819630       -1.17553573978958
H            2.07399097842381       -4.61284346107628       -0.12289779094430
H            1.15318846838756       -4.75410561113609        2.17827979753757
H            0.55863643568162       -2.67598364604633        3.37393028688161
H            0.54951147024030        2.66710460122518        3.36856915352654
H            1.13544168805774        4.74480974850924        2.16800714707267
H            2.05467814071398        4.60210783492665       -0.13368520912531
H            2.37419402329863        2.40382841830208       -1.18172961981682
H           -1.59701967069377       -2.32826092875687       -0.10146961060504
H           -2.56763985851578       -4.40185937015788        0.77345112587351
H           -5.00018239754184       -4.53494917941449        1.23262932410912
H           -6.42419294310653       -2.55589417988104        0.81399406434027
H           -6.41309334296089        2.59182391354305        0.77491143884156
H           -4.98041415540680        4.57051295849690        1.16518839028878
H           -2.54821069902663        4.41952949545473        0.70971886148908
H           -1.58643638492813        2.32917906493846       -0.13403220246888
