78
 energy: -130.642087749794 gnorm: 0.000050742049 xtb: 6.7.1 (edcfbbe)
O           -5.93116890480456       -0.64185831951651        1.36027269699946
C           -5.07210503125968       -0.19945903345091        0.63394834568507
C           -3.67031979811107       -0.69764929899961        0.64593210056587
C           -3.07092711875932       -1.09330881078533        1.83896173009239
C           -1.78955823650234       -1.60837918139568        1.84422187431135
C           -1.09470713473025       -1.77236860061046        0.64725559246842
N            0.19090292827988       -2.34955228329659        0.62429354974838
C            0.41796725964114       -3.50565504423342       -0.13146239391093
C           -0.62011589524064       -4.23366399791160       -0.70012056192464
C           -0.36528911017006       -5.37651115786347       -1.44277486306062
C            0.92962862140249       -5.82053655657442       -1.61832588707296
C            1.97365930057892       -5.12826319855222       -1.02380993346052
C            1.72416144314163       -3.98932533698111       -0.28043519418589
O            2.80507553480283       -3.38351816914510        0.30470611042773
C            2.56893342423548       -2.26081968331988        1.05389137293148
C            3.67390161918391       -1.65186218359350        1.61841408685708
C            3.52821390508422       -0.50794061535151        2.38765305011409
C            2.26836622199893        0.01831989300038        2.58216768904558
C            1.15641030341546       -0.58317646856303        2.01039704361748
C            1.28420895428581       -1.73216836530355        1.24201699837568
C           -1.70252011889375       -1.39390726671949       -0.54967231796603
C           -2.96852819397193       -0.84852589149333       -0.54892463190995
C           -5.33737250321190        0.85358550111364       -0.39106012494044
C           -6.39049646698189        0.71992406227185       -1.28624502861209
C           -6.60416634786270        1.68371573554887       -2.25621646278400
C           -5.77652551887954        2.79262870356748       -2.32659019993344
C           -4.73681680002984        2.94513706707691       -1.42428658841881
C           -4.50676908593623        1.97699868622283       -0.45593163476916
C           -3.49129533960191        2.17697883023716        0.62198856505499
O           -3.84697912987174        2.26598133485044        1.78104708303354
C           -2.06817486089492        2.21954498977449        0.23942907582498
C           -1.61084822374727        2.04257868183440       -1.06587441003705
C           -0.25825116507281        1.95611185236450       -1.32515855681852
C            0.67025405653942        2.02196629175205       -0.28373372321413
N            2.03725656889454        1.81651281157634       -0.51021493240450
C            2.51495248820109        0.61965250530865       -1.06868664985311
C            1.68430976760932       -0.32628063882117       -1.65568138905537
C            2.19656588894833       -1.48445756206804       -2.21891261257415
C            3.55367726171146       -1.73308707280394       -2.18860379834013
C            4.39334725215382       -0.82502423987839       -1.56606921551900
C            3.88460788634150        0.33262530440750       -1.00364776695797
O            4.78537082268658        1.14920961943746       -0.37171501182531
C            4.32325340095070        2.34883907693532        0.09846387354541
C            5.25816019567456        3.21789519548199        0.63319907571951
C            4.87242565483210        4.47109287226820        1.08146267713474
C            3.55272140849705        4.86028567447658        0.96139215896872
C            2.61316605669555        3.99128224529236        0.43059151034616
C            2.97354837469593        2.71096647860588        0.02667090413440
C            0.21499046297365        2.28367392119165        1.01138260633465
C           -1.13155489375170        2.37101947863028        1.26562580341940
H           -3.62577105924372       -0.98845618084016        2.75866370062822
H           -1.33295625892322       -1.92080015779434        2.77154917811692
H           -1.63932831203296       -3.91115362115592       -0.55585617205699
H           -1.19208998233665       -5.91685837505095       -1.87730311449434
H            1.13395527841294       -6.70556907566426       -2.19978094625763
H            2.99519949133883       -5.45937630960353       -1.11989281490414
H            4.64239975852428       -2.08957654957876        1.43913572588001
H            4.39550681808627       -0.03710165559546        2.82268469686930
H            2.13975859817522        0.90284163365658        3.18770088834185
H            0.18164279617913       -0.14572009302156        2.15415975509645
H           -1.17839586412547       -1.54456184601535       -1.48170044677673
H           -3.43112994886404       -0.56630898225543       -1.48388168249635
H           -7.03051943344216       -0.14679892018581       -1.21541609351246
H           -7.42126402213572        1.57393892700740       -2.95325176923126
H           -5.94810800463058        3.54858631620310       -3.07837542169212
H           -4.11337307496746        3.82717195942221       -1.45481862592003
H           -2.31444735955823        1.96826962247752       -1.88140761406803
H            0.08950550611361        1.84807801183638       -2.34169011194738
H            0.61936609737140       -0.16774668669842       -1.65852446531156
H            1.52274842584581       -2.19467712141784       -2.67489036567072
H            3.95766799445488       -2.63217666617382       -2.62510189529448
H            5.45472246640157       -0.99921783876800       -1.49294467589291
H            6.28503594195321        2.89335036800910        0.68464709127473
H            5.60602267770085        5.13959033362281        1.50335710362512
H            3.24267077363120        5.84468474089545        1.27599391074484
H            1.58852960345171        4.31272045808819        0.32543611839978
H            0.92975680002882        2.38460709832073        1.81245241184856
H           -1.49708223147246        2.52822188046826        2.26949512984982
