78
 energy: -130.627383403396 gnorm: 0.000040877543 xtb: 6.7.1 (edcfbbe)
O           -0.33927861869060       -0.11148854106071        1.35830540016594
C           -1.07695789703428        0.67202209244836        0.79500598957461
C           -2.50568536003344        0.39212397479037        0.55100235558683
C           -3.23942123944809        1.08847247195875       -0.40928679086103
C           -4.56260503913464        0.77217555465412       -0.63554405515870
C           -5.17984604618234       -0.24031613075765        0.09846892435362
N           -6.53134569945869       -0.55549289308214       -0.13219536919628
C           -6.95139679340292       -1.00912599799512       -1.38751607254664
C           -6.06270063666977       -1.23553715623846       -2.43113280480146
C           -6.51312985524435       -1.68957042850008       -3.66128680718249
C           -7.85539932796701       -1.93715650037689       -3.86584997083971
C           -8.75039687621613       -1.75130591783847       -2.82310566927080
C           -8.30600417799873       -1.30096888237833       -1.59363288278269
O           -9.24656723944338       -1.17756180854840       -0.60164469586081
C           -8.81591578777728       -0.75391711420068        0.62991092826081
C           -9.77388527025995       -0.63687116862723        1.62007626858443
C           -9.42557616634777       -0.17824351336665        2.88160553384828
C           -8.11754019542879        0.18022854754838        3.13636481599734
C           -7.15249701689230        0.06191602856048        2.14779923364695
C           -7.47749828096611       -0.42948879193757        0.88950105409433
C           -4.44755756320486       -0.94230965624436        1.05555730489483
C           -3.12236010974314       -0.63324947347372        1.26989759814125
C           -0.56599048748946        1.99687106281550        0.33425336817616
C           -1.14549826221679        3.18523879358228        0.76294097165384
C           -0.58410480750201        4.39836280141153        0.40559055423205
C            0.55686864042766        4.43298135135948       -0.38099309507184
C            1.14323649160976        3.25448594695129       -0.80805509241177
C            0.58911746754097        2.03180521011745       -0.44941543366610
C            1.13114671308844        0.74733638580886       -0.98722705493869
O            0.42993726611855        0.01431159695873       -1.65466403683800
C            2.54451077949472        0.44868121368022       -0.68536755928555
C            3.19063559222365       -0.54982826827824       -1.41635572064579
C            4.50244549465849       -0.87616124973889       -1.15203519831064
C            5.19151221358363       -0.21811124151483       -0.13352390479495
N            6.52946220476000       -0.55037291350842        0.14662227208190
C            6.88962853350772       -1.05520342260787        1.40096823715889
C            5.95326467420046       -1.31580535997035        2.39370171388711
C            6.34508008240337       -1.82020327796885        3.62430975065954
C            7.67538779472384       -2.08471176075206        3.87957043598578
C            8.61776523647062       -1.86481264378409        2.88637110590047
C            8.23197043312265       -1.36419837858136        1.65656086723265
O            9.21730072105236       -1.20920402577724        0.71366082742716
C            8.84573120298377       -0.73258586178322       -0.51778883465582
C            9.84872830574114       -0.58144833316906       -1.45747070565368
C            9.56092517931243       -0.06923589922826       -2.71362158582391
C            8.26770227582751        0.30816247797489       -3.01283815906571
C            7.25774260969263        0.15592275652875       -2.07511759637396
C            7.52222112323450       -0.38891172104447       -0.82464482518984
C            4.54463525554903        0.76789396281823        0.61101320377512
C            3.23488987647684        1.10087397542923        0.33612264751581
H           -2.76738048189574        1.86679617793858       -0.98961809802871
H           -5.13332302280100        1.30970517279236       -1.37850054876826
H           -5.00804097108301       -1.06670366815567       -2.28145584892764
H           -5.80014068262189       -1.85149494649688       -4.45477034155236
H           -8.21142381696016       -2.28570482291807       -4.82235462831925
H           -9.80228853089844       -1.95696216229030       -2.94084850839578
H          -10.79034423548836       -0.90458818030795        1.37980458920962
H          -10.17909470890075       -0.09327307390003        3.64846735885378
H           -7.83394035977461        0.55972203680877        4.10594641314788
H           -6.13820485944235        0.36361559978749        2.35681854546177
H           -4.92348004559014       -1.73729074066768        1.61047777786843
H           -2.53563372362919       -1.18016985326042        1.99267474312880
H           -2.02721499818928        3.15320484831824        1.38649199883451
H           -1.03662314277245        5.31938192719990        0.74143632265973
H            0.99041274501198        5.38109430791020       -0.66201661092806
H            2.02602713575638        3.27700362591769       -1.43048572713312
H            2.63630931375891       -1.06257123499915       -2.18810267475287
H            5.00079635422362       -1.65100830410334       -1.71569866130524
H            4.90734730306968       -1.13432249693281        2.20311715009734
H            5.59597260377326       -2.00786504006595        4.37784749242655
H            7.98584105346756       -2.47239680626464        4.83689894283178
H            9.66215561692884       -2.08215076370683        3.04338707304472
H           10.85178338822405       -0.86559457373994       -1.18226953505684
H           10.34925663851317        0.04206361083725       -3.44110767816532
H            8.03073704201709        0.72904873768824       -3.97783988488300
H            6.25561028807597        0.47278302269760       -2.31761920295472
H            5.08224367467968        1.27201881043683        1.40064386571460
H            2.73995000934398        1.85919091682677        0.92380823436372
