  103
       -157.92462896
 C         -7.4320452978        6.5071843229        0.1023404564
 C         -7.2972689182        7.1755913933        1.3135507980
 N         -6.4256224986        6.7821477889        2.2292961364
 C         -5.6721876396        5.7332626812        2.0116171828
 C         -5.7270942404        4.9663263755        0.8363386005
 C         -4.8686517818        3.8114443916        0.6409744425
 C         -4.4170449137        3.4533239198       -0.6378065214
 C         -3.6111276204        2.3545872232       -0.8201458616
 C         -3.2014392307        1.5609161301        0.2556569475
 Si        -2.1915498849        0.0026400171       -0.0119874623
 C         -3.1934786157       -1.5591645696       -0.2895419554
 C         -3.6205222897       -2.3451037337        0.7859367130
 C         -4.4229947904       -3.4452088627        0.5983964827
 C         -4.8481956965       -3.8181710563       -0.6852001761
 C         -5.6885078414       -4.9837416622       -0.8921106114
 C         -5.6374117587       -5.7585229668       -2.0639240418
 C         -6.4667964219       -6.8502164812       -2.2085160702
 C         -7.3396908767       -7.1684633614       -1.1741937660
 N         -7.4009984231       -6.4395239191       -0.0706198210
 C         -6.6221620073       -5.3968607306        0.0733383332
 C         -4.4331744666       -3.0240731772       -1.7644488570
 C         -3.6359198303       -1.9218835283       -1.5654782341
 C         -0.8476487233       -0.2242794993        1.3102863546
 C         -0.1604104096       -1.4413543577        1.3801198154
 C          1.1449344865       -1.5138433245        1.8085367033
 C          1.8222164897       -0.3452498322        2.1686720637
 N          3.2031206926       -0.3571367077        2.3768186330
 C          3.9238046229       -1.2730367220        3.1128887114
 C          3.4709359896       -2.2822895349        3.9503461657
 C          4.4170574929       -3.0546339868        4.6008734017
 C          5.7807831479       -2.8247455950        4.4312177079
 C          6.2381306571       -1.8030579119        3.6191508958
 C          5.3084807974       -1.0133560227        2.9567321008
 C          5.4152837215        0.1100341388        2.0704305919
 C          6.4888013727        0.7955896965        1.5189104437
 C          6.2327258209        1.8268385284        0.6337637230
 C          4.9295678126        2.1656213869        0.2821714729
 C          3.8426705170        1.4981463654        0.8215558373
 C          4.0918751488        0.4819571825        1.7320062795
 C          1.1144795802        0.8587726558        2.2283662694
 C         -0.1925032603        0.9093727178        1.8046099821
 C         -0.8327838120        0.2287720443       -1.3192666854
 C         -0.1467444553        1.4464805911       -1.3864990835
 C          1.1622037334        1.5197971888       -1.8042122594
 C          1.8444201111        0.3514440599       -2.1551129062
 N          3.2262135891        0.3649995492       -2.3571365803
 C          4.1139874984       -0.4737064004       -1.7107859173
 C          3.8641632330       -1.4844431054       -0.7944030413
 C          4.9503924821       -2.1540477289       -0.2561253982
 C          6.2535792066       -1.8219113008       -0.6140750125
 C          6.5104225447       -0.7956737334       -1.5048380376
 C          5.4375605848       -0.1085422277       -2.0558799094
 C          5.3317845649        1.0097495739       -2.9485798554
 C          6.2619645020        1.7904647295       -3.6210191416
 C          5.8055940237        2.8080053566       -4.4386336022
 C          4.4421128775        3.0429048904       -4.6035821836
 C          3.4955137180        2.2794452476       -3.9434102844
 C          3.9475251527        1.2738905795       -3.1011177188
 C          1.1397182948       -0.8543254843       -2.2148285577
 C         -0.1706215196       -0.9057986241       -1.8021237193
 C         -3.6671064711        1.9116246867        1.5269754097
 C         -4.4676765835        3.0123595276        1.7210498658
 C         -6.6479405733        5.3979008714       -0.1338654013
 H         -8.1502611799        6.8472063535       -0.6280248892
 H         -7.8946422473        8.0408025107        1.5614130744
 H         -4.9637452356        5.4950164227        2.7937606524
 H         -4.6860601436        4.0650846175       -1.4872454351
 H         -3.2722715488        2.1021969150       -1.8155075316
 H         -3.2980520279       -2.0845912543        1.7844496465
 H         -4.7074646948       -4.0491548684        1.4481342394
 H         -4.9273886281       -5.5118952161       -2.8397856701
 H         -6.4350609053       -7.4599347630       -3.0987101059
 H         -8.0021175491       -8.0203177068       -1.2233930844
 H         -6.7567642718       -4.8339067772        0.9872442588
 H         -4.7661861594       -3.2675390613       -2.7633737156
 H         -3.3356554925       -1.3231378512       -2.4141735980
 H         -0.6543878133       -2.3398710717        1.0391122662
 H          1.6768144853       -2.4542871123        1.7920566102
 H          2.4159456816       -2.4533167490        4.1008704742
 H          4.0916628307       -3.8485397039        5.2561403470
 H          6.4889175300       -3.4511280773        4.9529444992
 H          7.2950611966       -1.6175156719        3.5033773454
 H          7.5012797482        0.5214983125        1.7724779741
 H          7.0541876345        2.3710948963        0.1928131084
 H          4.7636305603        2.9588312892       -0.4315588157
 H          2.8347587632        1.7484995730        0.5273069644
 H          1.6127810355        1.7460148177        2.5915266331
 H         -0.7191195294        1.8527588875        1.8189650800
 H         -0.6449697650        2.3453342821       -1.0525736144
 H          1.6920787871        2.4613307754       -1.7866405574
 H          2.8562779813       -1.7294059439       -0.4953495472
 H          4.7839338546       -2.9434941262        0.4616917181
 H          7.0745219925       -2.3675090366       -0.1737747760
 H          7.5230329369       -0.5267765497       -1.7635721518
 H          7.3185533454        1.6008485336       -3.5088093827
 H          6.5141026439        3.4267473066       -4.9689346579
 H          4.1172931647        3.8335595870       -5.2630719410
 H          2.4406488199        2.4541679380       -4.0905382518
 H          1.6432804282       -1.7422122722       -2.5691732573
 H         -0.6948053835       -1.8505165162       -1.8161665525
 H         -3.3806149877        1.3059080241        2.3752294526
 H         -4.8175021188        3.2492630620        2.7156938499
 H         -6.7593761675        4.8410747031       -1.0527536766
