  103
       -158.02728507
 C          0.2082221588        6.8902688738        6.0288785886
 C          0.2837925470        6.2436677927        7.2536932176
 N          0.3130275729        4.9272941262        7.3730540140
 C          0.2614179359        4.1974276251        6.2764456150
 C          0.1738198556        4.7308452897        4.9888720322
 C          0.1171576415        3.8639671243        3.8068681806
 C          0.8344224217        4.1853874374        2.6560364275
 C          0.7840311769        3.3641560453        1.5479335361
 C          0.0170705966        2.2015169043        1.5438211652
 Si        -0.0120542216        1.0848288747        0.0161733477
 C         -0.0921227262        2.1774926704       -1.5279527701
 C         -0.8747131584        3.3296337116       -1.5355760919
 C         -0.9754642502        4.1209593850       -2.6619635755
 C         -0.2858400959        3.7845139843       -3.8254308562
 C         -0.3950424246        4.6176380301       -5.0276601660
 C          0.7073411725        4.8873595149       -5.8375030705
 C          0.5456076654        5.6793067457       -6.9603056116
 C         -0.7172054867        6.1817917758       -7.2374107191
 N         -1.7740925472        5.9303962338       -6.4836063844
 C         -1.6164603465        5.1719885844       -5.4169374680
 C          0.5054959537        2.6378658401       -3.8227014781
 C          0.5955628925        1.8499320206       -2.6921648830
 C         -1.5103393771       -0.0719737806        0.0488397803
 C         -2.6432830027        0.1765130931       -0.7196886590
 C         -3.7214151446       -0.6863207541       -0.7102359327
 C         -3.6928172926       -1.8267772942        0.0877600687
 N         -4.7792262774       -2.7095502487        0.0995701931
 C         -6.1037130986       -2.3603201560        0.2771332464
 C         -6.6639924721       -1.1164005628        0.5301939344
 C         -8.0338668745       -1.0481460981        0.6966914320
 C         -8.8339358545       -2.1863859902        0.6240752350
 C         -8.2794198870       -3.4300471556        0.3979559467
 C         -6.9045310489       -3.5241232804        0.2271067034
 C         -6.0110102604       -4.6253713152        0.0003440601
 C         -6.2010203450       -5.9915628514       -0.1590459533
 C         -5.0994451872       -6.7896457236       -0.3942912817
 C         -3.8233101671       -6.2389735615       -0.4866854652
 C         -3.6089356552       -4.8828190015       -0.3306734857
 C         -4.7089664622       -4.0788542910       -0.0687203502
 C         -2.5699011433       -2.0848994001        0.8699913064
 C         -1.4961940436       -1.2181863400        0.8400224093
 C          1.5372307521       -0.0030834609       -0.0161517399
 C          2.6674851203        0.3026077648        0.7353230325
 C          3.7834419984       -0.5109798791        0.7187479242
 C          3.7961739810       -1.6580030100       -0.0699765466
 N          4.9176584636       -2.4954792940       -0.0879998334
 C          4.9005773501       -3.8659373666        0.0856047110
 C          3.8343631372       -4.7079470068        0.3674087665
 C          4.0998857403       -6.0548019508        0.5240722003
 C          5.3936736577       -6.5591227807        0.4132280852
 C          6.4620018846       -5.7226128101        0.1592334539
 C          6.2204483742       -4.3645600590       -0.0010920065
 C          7.0694774223       -3.2318121115       -0.2431609827
 C          8.4373511019       -3.0874169199       -0.4334992965
 C          8.9426268754       -1.8246873329       -0.6694167694
 C          8.1004662107       -0.7167311049       -0.7325792120
 C          6.7363538456       -0.8350979401       -0.5473859848
 C          6.2256763562       -2.0981800917       -0.2846252238
 C          2.6766388489       -1.9720078120       -0.8366066511
 C          1.5651933506       -1.1549672029       -0.7987728323
 C         -0.7002568557        1.8900541621        2.6946280108
 C         -0.6518553376        2.7022337708        3.8106923207
 C          0.1511444868        6.1205326559        4.8807423742
 H          0.1875513026        7.9680302096        5.9757113773
 H          0.3224126691        6.7986904910        8.1816010847
 H          0.3102845649        3.1261739254        6.4263329579
 H          1.4494801431        5.0742133096        2.6410018955
 H          1.3460791157        3.6289808272        0.6629282050
 H         -1.4096048724        3.6096523542       -0.6386553823
 H         -1.5766577778        5.0186589789       -2.6396024902
 H          1.6803808080        4.4956746614       -5.5763828076
 H          1.3817741668        5.9072799341       -7.6033348071
 H         -0.8951417136        6.8141142757       -8.0971600693
 H         -2.5158287099        4.9789947792       -4.8458986365
 H          1.0344201910        2.3522295112       -4.7208668299
 H          1.2132114224        0.9632529051       -2.7095354144
 H         -2.6728733010        1.0544578723       -1.3489207050
 H         -4.5823472150       -0.4949084548       -1.3336014899
 H         -6.0512981598       -0.2306642628        0.6062526438
 H         -8.4945748784       -0.0906354179        0.8905575913
 H         -9.9011936217       -2.0899899778        0.7568033548
 H         -8.8962492353       -4.3151713412        0.3580033942
 H         -7.1924387018       -6.4151763927       -0.1041164124
 H         -5.2249428770       -7.8548402544       -0.5193291666
 H         -2.9823366559       -6.8858731557       -0.6890162273
 H         -2.6178237753       -4.4645907522       -0.4227309625
 H         -2.5531232252       -2.9584747905        1.5050065272
 H         -0.6255480596       -1.4321454160        1.4439373110
 H          2.6655332201        1.1860652724        1.3574529145
 H          4.6424017822       -0.2758759313        1.3297818922
 H          2.8306204323       -4.3247933663        0.4739249277
 H          3.2862473749       -6.7309626259        0.7416595705
 H          5.5594114702       -7.6186930542        0.5392064259
 H          7.4670419502       -6.1106529285        0.0906768773
 H          9.0872669134       -3.9488088844       -0.4007068811
 H         10.0038282184       -1.6896587760       -0.8164915588
 H          8.5231212050        0.2567139015       -0.9336565731
 H          6.0902990007        0.0271971154       -0.6162935569
 H          2.6915395396       -2.8502598867       -1.4651676222
 H          0.6970411592       -1.4139312560       -1.3884850660
 H         -1.3110920409        0.9987526986        2.7113595913
 H         -1.2306719466        2.4501317369        4.6874570833
 H          0.0693668853        6.5871464324        3.9090429974
