103
 energy: -157.928155043892 gnorm: 0.000055936345 xtb: 6.7.1 (edcfbbe)
C            0.09387871237896        6.78277962463839        6.07160127612874
C            0.09682485274576        6.11214510042953        7.28569378327939
N            0.08227684080188        4.79344611622576        7.37896755798859
C            0.05748076730612        4.08529042307710        6.26750707681669
C            0.04193299307638        4.64459924124013        4.98790860893423
C            0.01191309043434        3.80096616853530        3.78849635513920
C            0.78191462533637        4.12344063915265        2.67263554366423
C            0.75713766134191        3.32096178774435        1.54978400460669
C           -0.03300412469971        2.17597410083800        1.49611572002507
Si          -0.02888526710857        1.08935035694466       -0.05780353930079
C           -0.05638857587518        2.17486507910277       -1.58033773079057
C           -0.87788540043452        3.32677160851130       -1.63112616014228
C           -0.96178249959467        4.10478547226576       -2.74324135627537
C           -0.18650746494319        3.82942232249741       -3.91716877497956
C           -0.18951210932527        4.68127989207547       -5.03385800020780
C            0.76712691834110        4.62163407479629       -6.10926634525092
C            0.65251627708411        5.41858080803341       -7.20808258416617
C           -0.38510392271330        6.36886252857577       -7.26576006222737
N           -1.31058472472667        6.37907716575996       -6.31269403754264
C           -1.25856300210357        5.61465643454028       -5.27625540986877
C            0.64174842093483        2.65919808446945       -3.85452856184622
C            0.70734820521102        1.89004053298525       -2.73415232648139
C           -1.52306282183747       -0.08080785107854        0.01787729016360
C           -2.67436131928779        0.16416851942351       -0.72321447551904
C           -3.75488401523324       -0.69491642922520       -0.67876032508216
C           -3.70753478815770       -1.82845248094811        0.12788356419342
N           -4.79821064445635       -2.70716842500516        0.18004660097825
C           -6.11335868255874       -2.35094338302512        0.39906640465216
C           -6.65898269540267       -1.10172020713543        0.66036147314226
C           -8.02255647512294       -1.02532740344631        0.87091532239174
C           -8.82931975893304       -2.16027714354703        0.83363273178142
C           -8.28833182952438       -3.40954987082035        0.59899442389137
C           -6.92106187985158       -3.51183070777984        0.38409498243246
C           -6.03890840886791       -4.61895447672406        0.13753306960663
C           -6.23698995085644       -5.98550917402346       -0.00172454713191
C           -5.14417489338598       -6.78916106621048       -0.26305199196575
C           -3.87007901783743       -6.24346499888406       -0.40133794409845
C           -3.64784526392475       -4.88620044173350       -0.26745167664754
C           -4.73793044921604       -4.07668804975456        0.02072319783852
C           -2.56450960925024       -2.08622402300665        0.87992239498184
C           -1.48950723130327       -1.22270575690909        0.81403156580566
C            1.51311687541240       -0.01205392533825       -0.05724551460350
C            2.62973745315690        0.28492777043694        0.71643790653970
C            3.74977435426055       -0.52320396667875        0.70246855862398
C            3.77854947990491       -1.65532550370658       -0.10677829785433
N            4.91080920980485       -2.48136269583730       -0.12891934009291
C            4.91232911609412       -3.85138705783188        0.03563696147010
C            3.85531916819741       -4.71068691840240        0.30183660400976
C            4.13888242511766       -6.05502484348120        0.44942150541776
C            5.44069617028295       -6.53954353233298        0.34532773477067
C            6.49985256763379       -5.68590435008710        0.10469324661598
C            6.24020285828830       -4.33109787865360       -0.04765973569063
C            7.07378436878601       -3.18399292081121       -0.28016791989656
C            8.43900004349663       -3.01669196033177       -0.46540830608608
C            8.92422193027021       -1.74376607188446       -0.69487354987337
C            8.06494804518573       -0.64902401935892       -0.75542931196675
C            6.70232065643640       -0.79014599517600       -0.57440539529559
C            6.21190100845737       -2.06331668111731       -0.31950089672772
C            2.67128069883740       -1.96391397424973       -0.89226010121267
C            1.55656908471599       -1.15050309397886       -0.85719623266545
C           -0.80660128999379        1.86648118945121        2.60987412826219
C           -0.78500775144900        2.65925397074478        3.74055377994598
C            0.06452256154280        6.03630739354478        4.90717184505856
H            0.10723085934107        7.86146933665439        6.03912685524454
H            0.11141684084698        6.64822781802416        8.22534508662100
H            0.06726079192965        3.01071733893964        6.39875635197949
H            1.41783342039316        4.99721771724182        2.69682263018136
H            1.35865377573716        3.58664937219760        0.69171712671408
H           -1.46371037812314        3.57774442415591       -0.75689939363631
H           -1.61118813538516        4.96747889560246       -2.73483698648983
H            1.62290035987389        3.97251370632306       -6.01117250055149
H            1.38714162522221        5.39430558333611       -7.99861198786882
H           -0.45372326867015        7.11704102559749       -8.03713602866287
H           -2.12850985563529        5.62010408525842       -4.63579765705231
H            1.23154185910617        2.38868865522356       -4.71687541645303
H            1.35689045159630        1.02532952023458       -2.72027245972458
H           -2.71624325349357        1.03811583434119       -1.35688863863226
H           -4.63189586586934       -0.50601668806330       -1.28032970890389
H           -6.03936457533322       -0.21912776874913        0.70907831511165
H           -8.47209784358244       -0.06430225057798        1.07252537595037
H           -9.89123812557329       -2.05846793280155        1.00042352136738
H           -8.91145549121238       -4.29094746144982        0.58634907866720
H           -7.22676947890197       -6.40670408091120        0.08879324068372
H           -5.27625138384791       -7.85525234475022       -0.37206140392910
H           -3.03760812244296       -6.89517450754634       -0.62192242028691
H           -2.65984138920368       -4.47034006822494       -0.39494426837325
H           -2.53408688777406       -2.95428066189447        1.52228343103657
H           -0.60405792755725       -1.43431203950476        1.39706383931727
H            2.61494481117743        1.15837695518649        1.35213460673945
H            4.59982696668612       -0.29493724338028        1.32869497756121
H            2.84575030524067       -4.34168364467310        0.40194865062170
H            3.33348665111481       -6.74489354912068        0.65389271875056
H            5.62097732352236       -7.59745720017432        0.46451005686468
H            7.51047389143471       -6.05975921197404        0.04022411639543
H            9.10347541142538       -3.86688798203670       -0.43445650137709
H            9.98342245457102       -1.59164634035529       -0.83923727829832
H            8.47223723867639        0.33168756082751       -0.95203252491294
H            6.04176145602125        0.06107798176328       -0.64077681961961
H            2.69978560850170       -2.83126321519731       -1.53564773956790
H            0.69907611794965       -1.40018924151789       -1.46585437809970
H           -1.43958975355630        0.99068537410965        2.58776521814712
H           -1.40594770404501        2.40736639976810        4.58844465065822
H            0.03895812376076        6.52309963915338        3.94235713249431
