103
 energy: -158.027431989725 gnorm: 0.000027190959 xtb: 6.7.1 (edcfbbe)
C            0.15601088908438        6.86081815279063        6.01242815013334
C            0.22597157952034        6.21219523391061        7.23647188195114
N            0.25755515041348        4.89557420193962        7.35354691623538
C            0.21357332691586        4.16768128133688        6.25529872206212
C            0.13167686219530        4.70323516589355        4.96817737173305
C            0.08239464962805        3.83791404145766        3.78477430227148
C            0.80182823584993        4.16280211121160        2.63634549695663
C            0.75858611224889        3.34174364150023        1.52769356792500
C           -0.00263140722403        2.17550510179505        1.52080176677903
Si          -0.02305062275344        1.05712560518404       -0.00628710308739
C           -0.08719282652115        2.15225818395304       -1.54929317570945
C           -0.90017466556698        3.28293698944364       -1.57596207142959
C           -0.98023452424979        4.08262714333954       -2.69811298948547
C           -0.23695468404378        3.77771793761224       -3.83696251422988
C           -0.31970042193647        4.62320590033300       -5.03274022039179
C            0.80820237118987        4.93723461281255       -5.78956934889870
C            0.67177099282722        5.74079221367246       -6.90743486331015
C           -0.59236751984384        6.20974263084272       -7.23294451037258
N           -1.67301974675914        5.91538884860689       -6.53029988991293
C           -1.53921691589554        5.14629768088560       -5.46799303318987
C            0.58390658443017        2.65228447078717       -3.81526062321826
C            0.65187953236440        1.85478896718811       -2.68985085760828
C           -1.52502715584024       -0.09427563857007        0.03162937799676
C           -2.66333764987344        0.15836957238753       -0.72740112528032
C           -3.74831378903195       -0.69567182651442       -0.70185018028911
C           -3.72128978551958       -1.83102016851586        0.10342468191618
N           -4.81389696240860       -2.70552776150587        0.13234002470360
C           -6.13460140364848       -2.34657294931081        0.31886062846038
C           -6.68443416095717       -1.09746019486203        0.56886711020361
C           -8.05224246390330       -1.01912962041239        0.74815367911127
C           -8.86004235096042       -2.15264200717497        0.69096436449334
C           -8.31565082078162       -3.40139992026494        0.46762394197965
C           -6.94320457154679       -3.50569104742371        0.28419995234232
C           -6.05859411875752       -4.61421672646635        0.05786138947056
C           -6.25816650697391       -5.98045179132343       -0.08975680287398
C           -5.16338503899687       -6.78706664823655       -0.32736900845706
C           -3.88452649824450       -6.24515112396582       -0.43402041096198
C           -3.66079846213616       -4.88920764463926       -0.29079638599028
C           -4.75388014740206       -4.07652649503709       -0.02627407980172
C           -2.59253108040295       -2.09336248753095        0.87584762306294
C           -1.51215350401007       -1.23583487416573        0.82956140951033
C            1.52767606382799       -0.02889203938130       -0.03189210457462
C            2.65619029388423        0.28457283950872        0.71903748432796
C            3.77806564818770       -0.52064411758209        0.70090051679409
C            3.79891582939019       -1.66709661481122       -0.08861936469236
N            4.92997200678009       -2.49165861908671       -0.11111027415482
C            4.93303038630365       -3.86168883071085        0.06630405547045
C            3.87927227273110       -4.71930361791211        0.34797979574737
C            4.16504168734958       -6.06163491216734        0.50798371229261
C            5.46659695231869       -6.54652306256360        0.40108217654166
C            6.52242627014983       -5.69453450574503        0.14629275777930
C            6.26029823827538       -4.34085228826324       -0.01835069046742
C            7.09251891943739       -3.19662836943999       -0.26471167226867
C            8.45783314767313       -3.03278590639295       -0.45745883909911
C            8.94391507969673       -1.76382382965104       -0.70060824384610
C            8.08524858481046       -0.66893548047262       -0.76814070673145
C            6.72334424463458       -0.80667830700826       -0.57988765812530
C            6.23192751747435       -2.07588933384105       -0.31012240201227
C            2.68006869024038       -1.99055833924649       -0.85220346043828
C            1.56272635063038       -1.18133131472466       -0.81335722291694
C           -0.72297836764700        1.86111000639057        2.66898940054923
C           -0.68217920340314        2.67324188357274        3.78519420772343
C            0.10684853805121        6.09309269062834        4.86257593661164
H            0.13360638803627        7.93861645015452        5.96130864251343
H            0.25828796437483        6.76566341538773        8.16554938905151
H            0.26308069804151        3.09642399479599        6.40370449321122
H            1.41343920299476        5.05389971241160        2.62350748465195
H            1.32245189199365        3.60932603780669        0.64478295463275
H           -1.47416828304912        3.54064059494901       -0.69672414310917
H           -1.60580825992469        4.96367576685551       -2.69040783490579
H            1.78037554805560        4.57102543788312       -5.49066582616658
H            1.52800178211273        6.00375564075499       -7.50949678286942
H           -0.75188410760741        6.84837787905008       -8.09157640997451
H           -2.45638626481128        4.91781986492546       -4.94009086247136
H            1.15511206683819        2.39128872499876       -4.69487705764982
H            1.29296287551092        0.98473542896049       -2.69217083754960
H           -2.69242606676937        1.03265431573948       -1.36166131621732
H           -4.61395176748352       -0.50078007082245       -1.31758238588387
H           -6.06526002377177       -0.21534415615430        0.63339078802935
H           -8.50473028271812       -0.05745063163910        0.94067267221109
H           -9.92540109392287       -2.04898327272966        0.83344297915403
H           -8.93905423600910       -4.28233460646705        0.43979047746092
H           -7.25166619110932       -6.39764516182742       -0.02401667061834
H           -5.29622885780169       -7.85247637331758       -0.44272286891706
H           -3.04915506913597       -6.89904799569322       -0.63710601587414
H           -2.66811489871093       -4.47736980628929       -0.39404843678028
H           -2.57656777860612       -2.96260918955665        1.51675198854594
H           -0.63732067226395       -1.45329020420126        1.42609312430092
H            2.64851887077522        1.16806893729063        1.34105642845195
H            4.63628639794896       -0.27886400583882        1.31038463515274
H            2.86951877110441       -4.35143460833259        0.45156498927405
H            3.36128419102497       -6.74983634543717        0.72472954999692
H            5.64820702017951       -7.60314310601992        0.52993496835752
H            7.53348376837804       -6.06713880653480        0.08034826691268
H            9.12069085416648       -3.88411275243448       -0.42135748075179
H           10.00274563049199       -1.61396793752824       -0.85052520669958
H            8.49276529998544        0.30959067894888       -0.97582255574767
H            6.06445510722926        0.04560151488783       -0.65207940772935
H            2.70041930016977       -2.86884990765809       -1.48056897143889
H            0.69623836442853       -1.44596299554419       -1.40297492918658
H           -1.32981365579998        0.96703436904792        2.68363221309868
H           -1.26281181752314        2.41812916579788        4.65998810045577
H            0.02928307644776        6.56141095096869        3.89133310495138
