67
 energy: -110.937719686596 gnorm: 0.000041471875 xtb: 6.7.1 (edcfbbe)
C            5.87939375515096       -1.20139674613147        0.82401834293726
C            4.72006913677773       -1.25224270769819       -0.17475053785432
O            5.09048822360520       -0.28803772403930       -1.19682392508753
C            4.15411020284050        0.00650764212008       -2.15607299727497
O            3.25438224530431        1.02547089033977       -1.70971655291809
C            1.93965574258822        0.80845807461774       -1.81690469455480
O            1.46165665263850       -0.16183916098594       -2.35912111125059
C            1.13355029165402        1.87976059839120       -1.18559273887149
C           -0.25275751162129        1.73963391670648       -1.15733413538624
C           -1.03443436903623        2.68797572307817       -0.52717410412539
C           -0.43757551774355        3.79060129406606        0.06363166160219
C            0.93916833441229        3.94502569205629        0.01937793969990
C            1.72773525760523        2.99379682760632       -0.59933728936721
C            4.66097743991669       -2.67067121777567       -0.79966720215107
C            3.31190555234032       -3.26069949705738       -1.05981396267611
C            2.18153776114576       -2.77046280023264       -0.54944828151479
C            2.24677080988849       -1.56285442005830        0.22270409522333
C            3.41367281683137       -0.87038237389555        0.45504529909409
C            3.07642477448755        0.26212278894808        1.25443825419709
C            3.78337531169050        1.35942284323013        1.74791356727023
C            3.10907977794523        2.31418051105354        2.47427961819227
C            1.73622545406709        2.21605171967884        2.70428175550329
C            1.00547209143523        1.15492809026458        2.21426983912746
C            1.68255114952611        0.17420028935170        1.50306707841128
N            1.19501293056572       -0.94917696785514        0.86964331912945
C           -0.16007426815528       -1.27763081804282        0.76958733048208
C           -0.73133694270006       -1.52124758601118       -0.48049383183867
C           -2.09166609883276       -1.73956543860899       -0.57894335983826
C           -2.87216218363783       -1.71777648605256        0.56183735937918
S           -4.65555345083666       -1.74491436766157        0.37547573718748
O           -5.02646694202532       -2.67411462590379       -0.65750153132309
O           -5.26175271460998       -1.87839159885841        1.67325571225021
C           -4.90222720783175       -0.06908075541524       -0.23090140448519
C           -4.76775223616094        0.98060838376132        0.65729252070211
C           -4.86209278852634        2.27981573979866        0.18718035084447
C           -5.08225544801041        2.51124162014487       -1.16267019722448
C           -5.21731363504924        1.44998601200084       -2.04382378903545
C           -5.12360087770144        0.14912618336656       -1.57604411282546
C           -2.31303553981589       -1.51736384439859        1.80890441573837
C           -0.95059702692963       -1.31051236665147        1.91796954528000
H            6.06669043583188       -0.17853974695309        1.12906121267292
H            6.78053422343874       -1.58616698725114        0.35377140138880
H            5.63962969996193       -1.79745823903334        1.70013397578653
H            4.70295165392454        0.42200158202197       -3.00985934295153
H            3.56000110532180       -0.86462743463986       -2.46934994850749
H           -0.70271549013380        0.88091499415428       -1.63034407276404
H           -2.10788575895896        2.56647650511671       -0.49844981628370
H           -1.04708509273281        4.53324612998178        0.55721493677713
H            1.39963231392265        4.80870899511472        0.47482250205355
H            2.80008991715629        3.09861360145273       -0.62739652647499
H            5.18411091869276       -3.36203682566248       -0.13032695662030
H            5.23869325123409       -2.64648508736901       -1.72853920188474
H            3.30417480521980       -4.16221788150246       -1.65484482763663
H            1.23028690818453       -3.25218962681915       -0.70699986668042
H            4.83583654858029        1.47344665890349        1.54432055143694
H            3.64648885626536        3.16613760629283        2.86407970518812
H            1.23558536510442        2.99120175570377        3.26476070099339
H           -0.06283234906204        1.10460548082143        2.35955393955676
H           -0.11324256949117       -1.48606613936777       -1.36456315203349
H           -2.56253654782837       -1.91568156629375       -1.53327761462609
H           -4.60505992294778        0.76692518298023        1.70204076904888
H           -4.76402831833649        3.11041743964768        0.87026069983527
H           -5.15134845131006        3.52500637099961       -1.52864659978047
H           -5.39400466567688        1.63606882773343       -3.09228819820151
H           -5.23062157983169       -0.70212463379723       -2.22999517717938
H           -2.95522471487585       -1.53319950553762        2.67558613178028
H           -0.49225396489377       -1.17063107891836        2.88494152706670
