67
 energy: -110.858865498278 gnorm: 0.000173405339 xtb: 6.7.1 (edcfbbe)
C            5.37585414762751       -2.04109037974749        0.78006257165535
C            4.55228522903008       -1.21218083423562       -0.22270187973501
O            5.38163216381755       -0.06985785105413       -0.48999423408636
C            4.99202128476195        0.85976213426681       -1.44396838625747
O            3.77601774824795        1.51749631818435       -1.14738493526749
C            2.65149124939734        1.02823624291699       -1.73301544734484
O            2.68254677742190        0.19195039585106       -2.61340397653272
C            1.41312231650205        1.62109720598498       -1.21234126203065
C            0.19925827294737        1.18447875469331       -1.75095980624949
C           -0.99579523080397        1.66238932527487       -1.25519510931784
C           -0.99384388701798        2.59303629921318       -0.22616945877347
C            0.20779594871912        3.05385298996101        0.29097135778922
C            1.40903067826746        2.57392080575156       -0.19366100680961
C            4.27468172145905       -2.08143565330903       -1.47379867524324
C            3.21515963693154       -3.09117404319368       -1.24690246744550
C            2.05412216501601       -2.75885436546201       -0.53677546704357
C            2.04534489410542       -1.59225425990329        0.18865236469729
C            3.26115184437805       -0.82936343832084        0.41359663865449
C            2.97035891493080        0.13475710820414        1.37522911509904
C            3.75721303457838        1.12013528552096        1.99831689344019
C            3.15351038368422        1.96798518249131        2.90392536391638
C            1.79373469031977        1.87517874671509        3.17271319349148
C            0.98774613096913        0.90882728562620        2.55899443352365
C            1.57991679874881        0.02504338032763        1.69004413505516
N            1.03714761358487       -1.02669822808296        0.95032028392855
C           -0.31919887032022       -1.28802614099692        0.79817694810193
C           -0.83927830205102       -1.54923142651835       -0.47587336599572
C           -2.19856318464166       -1.68248005851663       -0.65156064928494
C           -3.04662748479886       -1.57681774357894        0.43833116004368
S           -4.80688777118637       -1.47196670497696        0.14978592028157
O           -5.16759143743264       -2.29342652115396       -0.97514115392293
O           -5.50773825708684       -1.65631715325881        1.39307202087049
C           -4.90545845140047        0.25701897073123       -0.33641706495270
C           -4.90530872464981        1.22748665053919        0.64687925194686
C           -4.87461963924790        2.56239597142826        0.28012995516157
C           -4.83458969776631        2.90936540461865       -1.06201000053494
C           -4.83727188806167        1.92736618952670       -2.04041851412446
C           -4.87054916949401        0.59109595906453       -1.67623036647002
C           -2.54304348342959       -1.38804104980457        1.71340104963678
C           -1.18249004605617       -1.25911448515605        1.89948734394892
H            6.34187462041965       -2.27718885353510        0.34300085672036
H            4.84517480153906       -2.95829446501243        1.01834116936234
H            5.53220475639860       -1.46416187812619        1.68683725850666
H            5.77101059780827        1.62813577520064       -1.41998897696919
H            4.92431768024048        0.42193435417983       -2.45228394089264
H            0.22423094912207        0.47234596746246       -2.56149669532835
H           -1.93363739476558        1.31553663549489       -1.66349148296993
H           -1.93180571993443        2.96045454534579        0.16334991010264
H            0.20742486091883        3.78938059997594        1.08153404225862
H            2.34609261992206        2.92249889130935        0.20947641029807
H            5.20192776478987       -2.54016653263299       -1.81872383183163
H            3.90882319853601       -1.41123661700632       -2.26650464926199
H            3.29443599016194       -4.04654029935525       -1.73616364858537
H            1.20206230534223       -3.42081308770459       -0.54499108275273
H            4.80390390969034        1.20034967037730        1.75353178168350
H            3.74084510890733        2.72479369492200        3.40230226537482
H            1.33871514400854        2.56555746264006        3.86639326668290
H           -0.07029157842293        0.89009168039262        2.76229017247001
H           -0.17130112754655       -1.60189271236482       -1.31995494267299
H           -2.62288819421325       -1.86270753908439       -1.62644820187038
H           -4.94541562141846        0.92325628209199        1.68092563495900
H           -4.88268624547986        3.33168605606802        1.03807025312661
H           -4.80546719169578        3.95058334027418       -1.34715819663867
H           -4.81264371728346        2.20339092519655       -3.08390071381634
H           -4.88466613719776       -0.19952486730267       -2.41012110341994
H           -3.23143147395697       -1.35819774664221        2.54334654212169
H           -0.77784031306588       -1.15393315841288        2.89337022284481
