  67
       -110.85304206
 C          5.3108854279       -2.0507659516        0.7892236906
 C          4.5261736186       -1.1959742422       -0.2252547559
 O          5.3855432894       -0.0740846832       -0.4661749595
 C          5.0364036800        0.8729140642       -1.4230167172
 O          3.8316420704        1.5515671983       -1.1482695822
 C          2.7028148227        1.0576153586       -1.7345965159
 O          2.7416173701        0.2169763069       -2.6150415924
 C          1.4668415904        1.6489665798       -1.2217007363
 C          0.2513982996        1.1815165485       -1.7343969230
 C         -0.9440173545        1.6581290488       -1.2403273067
 C         -0.9445219935        2.6205480137       -0.2400548849
 C          0.2569668491        3.1132586673        0.2490343297
 C          1.4589790143        2.6350955851       -0.2329407120
 C          4.2570552244       -2.0535522297       -1.4868089822
 C          3.1911028806       -3.0573020141       -1.2844830062
 C          2.0406780698       -2.7414321056       -0.5711396548
 C          2.0222836100       -1.5706209109        0.1626182359
 C          3.2288286164       -0.7999550826        0.3889180702
 C          2.9274402838        0.1657593726        1.3438223171
 C          3.7030511335        1.1606720393        1.9694483280
 C          3.0867801927        2.0039699076        2.8702943869
 C          1.7260938740        1.9008354567        3.1318458530
 C          0.9309012521        0.9256874249        2.5158941680
 C          1.5363709252        0.0449286053        1.6537316622
 N          1.0089799957       -1.0177484888        0.9177272640
 C         -0.3442271155       -1.3045842793        0.7778497859
 C         -0.8710718018       -1.5747088461       -0.4920251542
 C         -2.2294045129       -1.7274018207       -0.6552330572
 C         -3.0697861066       -1.6348297990        0.4426496641
 S         -4.8305625652       -1.5218372998        0.1649856716
 O         -5.2015516561       -2.3264594132       -0.9686405091
 O         -5.5276950986       -1.7168756206        1.4086631041
 C         -4.9050294819        0.2140586010       -0.2976874211
 C         -4.8930460578        1.1709192784        0.6992419349
 C         -4.8221746698        2.5093707640        0.3519528579
 C         -4.7532172767        2.8735840546       -0.9844498352
 C         -4.7689340065        1.9054231453       -1.9767020573
 C         -4.8427470675        0.5657186445       -1.6321506835
 C         -2.5571215313       -1.4396079222        1.7140153371
 C         -1.1975952064       -1.2895633435        1.8877205490
 H          6.2778317222       -2.3085969159        0.3670543727
 H          4.7537651515       -2.9552334936        1.0144132469
 H          5.4658368337       -1.4801790686        1.7002211510
 H          5.8321537417        1.6225689191       -1.3755430616
 H          4.9849186503        0.4406381229       -2.4348862278
 H          0.2782717939        0.4459494438       -2.5236893104
 H         -1.8814443402        1.2864106515       -1.6274173773
 H         -1.8831738837        2.9878792049        0.1477283564
 H          0.2542287961        3.8742946751        1.0153803471
 H          2.3955704062        3.0094143594        0.1476847046
 H          5.1851296022       -2.5092349477       -1.8331078604
 H          3.8966271003       -1.3673938847       -2.2713517256
 H          3.2697566243       -4.0033091761       -1.7923944115
 H          1.1943402594       -3.4108629570       -0.5687121763
 H          4.7504132356        1.2488352083        1.7308293196
 H          3.6646610745        2.7666384115        3.3707026649
 H          1.2614633935        2.5893491957        3.8207613937
 H         -0.1280311955        0.8971622178        2.7134077409
 H         -0.2100396683       -1.6156322392       -1.3421121888
 H         -2.6604660100       -1.9115548438       -1.6263404879
 H         -4.9538410592        0.8533770454        1.7282276251
 H         -4.8190575150        3.2677951934        1.1205445171
 H         -4.6891984447        3.9173224070       -1.2544750981
 H         -4.7207799612        2.1950566806       -3.0157438554
 H         -4.8663740062       -0.2139890619       -2.3774178057
 H         -3.2385918325       -1.4197620557        2.5498968039
 H         -0.7848970714       -1.1771426074        2.8776093178
