67
 energy: -110.856555127854 gnorm: 0.000062879595 xtb: 6.7.1 (edcfbbe)
C            6.06142669558597       -0.95939370774917        0.79872695625683
C            4.85045272737687       -1.10377533571515       -0.12755994842169
O            5.13903513161203       -0.18637774758695       -1.21576451081028
C            4.16651989365489        0.01804236784127       -2.15713851100444
O            3.15779481235914        0.89484837558405       -1.65238441629882
C            1.89342880347636        0.68643973900281       -2.04502118189403
O            1.57823510385988       -0.16385240314446       -2.84537702596164
C            0.92967507828280        1.58505887924706       -1.37054333730084
C           -0.41808040309923        1.48721832052644       -1.71638578019176
C           -1.36191311714406        2.24718192411627       -1.05479985006850
C           -0.96454272020944        3.12277898445967       -0.05616845449418
C            0.37718370726429        3.24763902330748        0.26860072124638
C            1.32621819009523        2.48017257140441       -0.38059049544165
C            4.81123599535928       -2.55247351965588       -0.68372918185452
C            3.51150562806199       -2.96098158081835       -1.27224614453180
C            2.29471669859778       -2.50078164003089       -0.73252333831229
C            2.31686807694473       -1.44959852586816        0.14276495168824
C            3.55583925607053       -0.77919785127654        0.54187333258383
C            3.21149085150005        0.17006355888399        1.50409843850455
C            3.94125852345208        1.13601002348152        2.22594167322372
C            3.26562503376561        2.00557907574167        3.05694046013194
C            1.88386064459165        1.95300422126850        3.18531836884509
C            1.12903654021593        1.00683648835108        2.48523506715390
C            1.78999870509251        0.11326190869962        1.67714867602439
N            1.27067875804563       -0.87443659018325        0.84792736955374
C           -0.08403856225198       -1.15258055928883        0.69598076310222
C           -0.63809837638715       -1.34255609972117       -0.57590497058556
C           -1.99789711643189       -1.52209809592664       -0.71384434168919
C           -2.81094892889005       -1.52708789532257        0.40627962149348
S           -4.58412664695566       -1.55126596564877        0.18573401318888
O           -4.92670790392509       -2.40781774948330       -0.91866179165670
O           -5.21443714031226       -1.78408362069236        1.45889888145059
C           -4.86946401722231        0.15660281960868       -0.30402277363096
C           -4.84569267621773        1.14049427957604        0.66575650336922
C           -4.99812075989407        2.46452659134873        0.29027707849612
C           -5.16500301918111        2.78805411004281       -1.04814726762963
C           -5.18656695441427        1.79253544836533       -2.01305867559782
C           -5.03508829926314        0.46688166812062       -1.63954256184012
C           -2.27274820581962       -1.39244267253892        1.67406267030403
C           -0.91285543976922       -1.21979965506432        1.82273408152347
H            6.32214567830350        0.08885109155687        0.89538349983934
H            6.91366186760323       -1.47561134077459        0.36479725130737
H            5.84399322510991       -1.37775462732658        1.77717001986832
H            4.65631236179785        0.51441100558811       -3.00402298337102
H            3.68348196795807       -0.91401364767766       -2.49703189519214
H           -0.70468520154818        0.81383671267201       -2.50880456864775
H           -2.40621968461820        2.15869118155449       -1.31393547954091
H           -1.70398917339274        3.71396223849580        0.46356253175227
H            0.68578450320468        3.94003599832476        1.03724648041455
H            2.37021618325725        2.56280059288935       -0.12341536981950
H            5.04752536536825       -3.21436868174048        0.16068822351264
H            5.61619934011253       -2.65855103277282       -1.41518654714978
H            3.50695295512827       -3.69199259015767       -2.06246503354264
H            1.37259231090618       -2.96714429450210       -1.03678794957221
H            5.01015298229587        1.20475104643532        2.12232573821268
H            3.82049418184325        2.74723128122354        3.61223198918377
H            1.37690115498462        2.65499150564368        3.82932001420411
H            0.05375793524220        1.01083620025440        2.56312162969457
H           -0.00844009311574       -1.30588757095884       -1.44928581008016
H           -2.44656554826634       -1.65622530255276       -1.68526043202932
H           -4.72646374959511        0.85427052402812        1.69882429702254
H           -4.98991754658163        3.24340932125351        1.03799019150574
H           -5.28224461627297        3.82121590715699       -1.34030230888630
H           -5.32145288490704        2.04951163490102       -3.05298103674680
H           -5.05865358653758       -0.33536185614831       -2.36025006034097
H           -2.93274654589446       -1.44296690802361        2.52583361771981
H           -0.47805223770314       -1.15479525028928        2.80793932030539
