  70
       -107.52168791
 C         -1.8277255325       -0.0091574441        2.4735294657
 C         -0.9851503278       -0.0050092772        1.2375243885
 C          0.3992399888       -0.0072740636        1.2967500542
 C          1.1639191168       -0.0039853605        0.1381348520
 N          2.5911239106       -0.0063357072        0.2172338007
 C          3.2207062157       -1.2379704017        0.2118923494
 C          2.4750244712       -2.4068651913        0.4326695449
 C          3.0887976849       -3.6407137794        0.4863717547
 C          4.4629887461       -3.7625914465        0.3329286134
 C          5.2083666737       -2.6247257136        0.0906408008
 C          4.5934488799       -1.3890002076        0.0213171003
 S          5.5559226195        0.0232656055       -0.4727173071
 O          5.5010185749        0.1082088706       -1.9149835358
 O          6.8665001623       -0.0153792317        0.1239757108
 C          4.6016974619        1.3752034261        0.1810887558
 C          5.2266110165        2.5902648026        0.3879429474
 C          4.4893922415        3.7018118704        0.7480997138
 C          3.1127791939        3.5770350349        0.8732625309
 C          2.4885287196        2.3622216829        0.6812172920
 C          3.2263356911        1.2157488485        0.3470958341
 C          0.5681335743       -0.0013596920       -1.1221595885
 C          1.4112837346       -0.0124100951       -2.3570012892
 C         -0.8183276389       -0.0004678644       -1.1798004403
 C         -1.5859793007       -0.0021169928       -0.0246227948
 N         -3.0029561879        0.0001422903       -0.1237457459
 C         -3.6787089096       -1.2055071167       -0.0597422897
 C         -2.9534788025       -2.3987704167        0.0099124563
 C         -3.5969113308       -3.6164700328        0.0799040438
 C         -4.9791710192       -3.6647364826        0.0775049948
 C         -5.6979043202       -2.4857139153        0.0005860452
 C         -5.0764467766       -1.2466800231       -0.0683395068
 C         -5.9191154501        0.0120615902       -0.1512949010
 C         -6.8158869975        0.0873671259        1.0978119015
 C         -6.7822624502       -0.0561563180       -1.4239935570
 C         -5.0646584910        1.2643070444       -0.2100403569
 C         -5.6751721158        2.5087019030       -0.2812671062
 C         -4.9461450185        3.6829728431       -0.3276113982
 C         -3.5646109661        3.6238956555       -0.3012917035
 C         -2.9317649710        2.4005485313       -0.2327846110
 C         -3.6672823314        1.2124914305       -0.1901076838
 H         -2.5030193891        0.8461389734        2.4730370054
 H         -1.2080592042        0.0313136390        3.3648624782
 H         -2.4384252519       -0.9114310683        2.5097836010
 H          0.9003801737       -0.0111961821        2.2540032768
 H          1.4069405132       -2.3386282942        0.5646710796
 H          2.4853101454       -4.5196987515        0.6556568777
 H          4.9384588893       -4.7286331179        0.3866149626
 H          6.2761666581       -2.6619838771       -0.0578390325
 H          6.2955046501        2.6334894085        0.2490770740
 H          4.9725803865        4.6516392763        0.9109001437
 H          2.5149105968        4.4386677043        1.1296601734
 H          1.4181140246        2.2935638105        0.7905060943
 H          0.7955957085        0.0965194860       -3.2453451465
 H          2.1442382141        0.7930343723       -2.3329828123
 H          1.9651617123       -0.9487306516       -2.4287749044
 H         -1.3189390669        0.0022478227       -2.1367065207
 H         -1.8744834090       -2.3649195126        0.0051205227
 H         -3.0164910176       -4.5252067705        0.1352103563
 H         -5.4949104452       -4.6108383932        0.1328692170
 H         -6.7759548548       -2.5397754017       -0.0044627524
 H         -7.4447482420        0.9727137509        1.0719250089
 H         -7.4597882438       -0.7847211935        1.1661525142
 H         -6.1998355425        0.1301066885        1.9942891740
 H         -7.4200547167       -0.9355092752       -1.4134903858
 H         -7.4150168760        0.8225826987       -1.5114445791
 H         -6.1419395575       -0.1070157366       -2.3026732844
 H         -6.7526516177        2.5706919739       -0.3006825991
 H         -5.4536967788        4.6335450116       -0.3825476625
 H         -2.9763445647        4.5286797803       -0.3340894655
 H         -1.8533255971        2.3586948751       -0.2136827330
