70
 energy: -107.566727271435 gnorm: 0.000053960896 xtb: 6.7.1 (edcfbbe)
C           -0.92861978832805        0.00063060716354        2.47528792064184
C           -0.13185382136581       -0.00068256846715        1.20945983864192
C            1.25495789421012       -0.00074529852429        1.22153384691906
C            1.98216876325784       -0.00112732211218        0.03880712712849
N            3.41675909025903       -0.00044932311669        0.08451035059617
C            4.04765309844349       -1.23065346036263        0.12225550878568
C            3.29175755012704       -2.40114012976261        0.30970071478545
C            3.89624692269577       -3.63754846596339        0.38482926666113
C            5.27557102390854       -3.76810014611085        0.28517261893894
C            6.03376617249325       -2.63164083142083        0.08518902917534
C            5.42749765863983       -1.39099131805175       -0.00039053909787
S            6.45825454918059        0.00096444109438       -0.38266609669693
O            6.71592114381480        0.00036219551536       -1.81139919042712
O            7.63487257674087        0.00203397495066        0.46152241906945
C            5.42597231057923        1.39220600378353       -0.00189160465120
C            6.03086170880138        2.63361763357319        0.08240362908859
C            5.27136773478819        3.76948227506551        0.28083420042216
C            3.89214777335709        3.63756548729104        0.38012259228878
C            3.28902379823358        2.40041426904329        0.30631027632646
C            4.04627763163699        1.23051008554026        0.12064923914527
C            1.34583685380604       -0.00154785539835       -1.20220763950859
C            2.14147528610904       -0.00091429859192       -2.46915052321109
C           -0.04251496437230       -0.00198629608094       -1.21236790671726
C           -0.77340655808404       -0.00150751226831       -0.03288218230021
N           -2.19595610389772       -0.00103042039619       -0.09133447729102
C           -2.86850469726219       -1.21147837032708       -0.09879010958584
C           -2.14057992174438       -2.40522173415532       -0.08843695361768
C           -2.77942542578823       -3.62752021364148       -0.09269397501807
C           -4.16175211665024       -3.68067404696541       -0.10904485210356
C           -4.88378090711218       -2.50083164379058       -0.11993732600471
C           -4.26679616111420       -1.25722481031377       -0.11396194281189
C           -5.11628998333477        0.00049983124816       -0.12013463775043
C           -6.00669631880570       -0.00021922325525        1.13696252595081
C           -5.98899150279110        0.00197916039491       -1.38930253696103
C           -4.26550416504322        1.25734812837831       -0.11216837444344
C           -4.88115833654823        2.50163206341710       -0.11645229932184
C           -4.15788558046295        3.68070170190117       -0.10474582807088
C           -2.77560455059857        3.62607601493304       -0.08957270162675
C           -2.13805946228260        2.40310256819441       -0.08687003230714
C           -2.86726505155843        1.21012378171993       -0.09766620235475
H           -1.56944164715283       -0.87979582120046        2.51851373497293
H           -1.57265196297941        0.87889120548862        2.51454808070420
H           -0.27542472976945        0.00376730309891        3.34299792072933
H            1.78672254760571       -0.00022042088864        2.16153768261270
H            2.22006098149721       -2.33148753286098        0.39736369194913
H            3.28298493914574       -4.51410668940556        0.52853193433560
H            5.74543550019991       -4.73604157935217        0.35155046450729
H            7.10797135417421       -2.66821280649905       -0.01350024063235
H            7.10505376295238        2.67123820546738       -0.01602504211023
H            5.74016212981687        4.73800781318935        0.34626653787363
H            3.27786649596980        4.51363420130814        0.52245499063646
H            2.21735518055735        2.32974390335316        0.39361311155524
H            1.48511360138777       -0.00097812018132       -3.33455673610118
H            2.78474433903307        0.87767576985931       -2.51699726046033
H            2.78571108177439       -0.87875230090992       -2.51753861370069
H           -0.57303535502446       -0.00237152490098       -2.15305391039167
H           -1.06226253962503       -2.36872420208223       -0.07823086263864
H           -2.19603013474066       -4.53669075458092       -0.08370197102713
H           -4.67538902389098       -4.63054696833204       -0.11301624685005
H           -5.96183398419474       -2.55814180206025       -0.13208961124662
H           -6.64072941355805        0.88175771773583        1.16347937585969
H           -6.64583452045121       -0.87864517790893        1.15875576111795
H           -5.38677383061288       -0.00440713087911        2.03211924144263
H           -6.62613991098649       -0.87752047035072       -1.42322368540241
H           -6.62433978379798        0.88280558179849       -1.42238958414985
H           -5.35636259586611        0.00175318262041       -2.27556001115384
H           -5.95916270836798        2.56012161887806       -0.12797288838619
H           -4.67052493727887        4.63111619112379       -0.10741209749307
H           -2.19122047895193        4.53460698627518       -0.08034591834631
H           -1.05976748080606        2.36550768806191       -0.07760002089992
