70
 energy: -107.455260734920 gnorm: 0.000052338853 xtb: 6.7.1 (edcfbbe)
C           -1.85170497700125        0.01360734431010        2.55036850511403
C           -0.99627093964306        0.00410989810194        1.32162635638392
C            0.38211191800824        0.00232529424131        1.39628291706798
C            1.17345470161245       -0.00430119582796        0.24057539442951
N            2.59875030140742       -0.00494463579305        0.35224702655162
C            3.22273696366239       -1.23345002460497        0.34606260618347
C            2.47934765116486       -2.40943621986830        0.57696301620688
C            3.07549282109772       -3.64635750918799        0.58027689174550
C            4.45183278263387       -3.78441325876219        0.33986689427220
C            5.19642328252285       -2.64728526825976        0.09433503830310
C            4.60582568820507       -1.39905411587608        0.10373801264275
S            5.59666948084975       -0.00198202114181       -0.33220404629422
O            5.76856009720503        0.01073642512677       -1.77971906620149
O            6.83466493833915       -0.00918321095973        0.42769088757294
C            4.60767520059268        1.38927766591055        0.12681309809323
C            5.20090437649533        2.63638013498678        0.13683631885057
C            4.45810837049344        3.77130930316021        0.39701127780792
C            3.08075115085026        3.63284133136814        0.63014373927444
C            2.48196679733154        2.39720718039175        0.60728870921772
C            3.22382136261980        1.22309570086658        0.36349775567567
C            0.58467965468943       -0.01013430059748       -1.03230723533378
C            1.43940037287199       -0.01691247372245       -2.25977388164969
C           -0.79368532500327       -0.00925526759878       -1.10901880402303
C           -1.58290218098706       -0.00217429028921        0.04716391100230
N           -3.00356175413713       -0.00029040594722       -0.07812471450230
C           -3.66355140810761       -1.20056075432240       -0.10299221505466
C           -2.92641023660436       -2.40457708427517       -0.07973352373688
C           -3.56168188534765       -3.61800728863512       -0.08607263551998
C           -4.95846080985501       -3.67251275550072       -0.11109440716349
C           -5.68924127324160       -2.49435365190817       -0.13556272934311
C           -5.08130256862106       -1.25099087424763       -0.13579685486424
C           -5.91816784313519        0.00572551077802       -0.16073621884347
C           -6.82145585134133        0.02272929610037        1.09046434578660
C           -6.78952519557883       -0.00723698586320       -1.43444172572034
C           -5.07523939691453        1.25863573250994       -0.16522982234110
C           -5.67727755500436        2.50455126876393       -0.19443108241558
C           -4.94094756385487        3.67945206680834       -0.19632613760096
C           -3.54452282410733        3.61898024926509       -0.16745790040408
C           -2.91497252236645        2.40302006509836       -0.13260186687312
C           -3.65777647852537        1.20231199182724       -0.13017937287046
H           -2.49525601603524       -0.86586417552888        2.57485390993657
H           -2.49023093311041        0.89700166552004        2.56404839964319
H           -1.23412323035711        0.01736108176687        3.44385855802418
H            0.87337390163322        0.00652696079337        2.35748827836102
H            1.42064034983468       -2.32977001651701        0.76453300409483
H            2.47829933004424       -4.52463406197558        0.77137130969726
H            4.91536637940799       -4.75736084902236        0.34013430540345
H            6.25652933382175       -2.69276406299019       -0.10822335940387
H            6.26158044404738        2.68249691525095       -0.06251119321334
H            4.92376950213414        4.74311367739901        0.41306651721295
H            2.48448271227527        4.50956630501836        0.83098985430861
H            1.42226164864346        2.31783947028924        0.78899780498229
H            2.08224777766140       -0.89784785919055       -2.27397032834394
H            0.82742002950850       -0.01587874746151       -3.15749003399435
H            2.09097539234959        0.85749127680892       -2.27777327277196
H           -1.28129461788313       -0.01367373150182       -2.07222884860234
H           -1.84941615515332       -2.35750139189189       -0.06173004478992
H           -2.98444064292521       -4.52982693860731       -0.07148444049069
H           -5.46554338761374       -4.62459108069442       -0.11231482686946
H           -6.76596717643823       -2.56061353855623       -0.15537286202108
H           -7.45867059015515       -0.85606524156530        1.11526343302921
H           -6.21118479064188        0.03224529179448        1.99145167378451
H           -7.45483610530279        0.90463240484339        1.09413655535135
H           -7.42632971784876       -0.88636207276425       -1.45516906891540
H           -7.42250946739971        0.87392083718872       -1.47571822662647
H           -6.15576097531515       -0.01896774660003       -2.31906264330079
H           -6.75365615929949        2.57546533025391       -0.21706177959694
H           -5.44352297678953        4.63361361878620       -0.22029249745425
H           -2.96297872431727        4.52816710008630       -0.17234122803121
H           -1.83822788613295        2.35147669584076       -0.11139558909916
