53
 energy: -95.643145015547 gnorm: 0.000135183112 xtb: 6.7.1 (edcfbbe)
O           -0.58999043364865        1.04731040024167       -1.78402814731044
C           -1.56856612474146        0.73465685236602       -1.09973356021430
O           -2.78053420527868        0.92040843484529       -1.68332514215549
C           -3.94288274815512        0.66590630524080       -1.01535736458033
C           -5.12936483177389        0.91933741279269       -1.67064575834494
C           -6.34165311778385        0.66294495490310       -1.03181450492384
C           -6.35581948138808        0.14619806705124        0.25892706580151
C           -5.17982451523726       -0.11112534209255        0.92207277302471
C           -3.93531524799006        0.13984529373407        0.29639864888225
C           -2.69768242645306       -0.13782585581879        0.92237753607940
O           -2.72189894522269       -0.65819459902567        2.14667201127799
C           -1.49656310163771        0.23929001532658        0.23670695485250
C           -0.15611380161548        0.21589697568076        0.93078208707101
C            0.72296478472535        1.41250988609243        0.66277228896665
C            0.12873921072404        2.68509812388337        0.56190372129959
C            0.89085054091461        3.80046619033057        0.36448557492886
C            2.29531395023348        3.71040341209924        0.26755947672924
C            3.11128862080054        4.83878408949932        0.05390003278795
C            4.47289997278739        4.71222747631223       -0.02015410316215
C            5.07534178792499        3.45379407668231        0.11714667987251
C            4.30903291807397        2.33900717697515        0.32588318071269
C            2.90442993441803        2.43647083316960        0.40463669079206
C            2.09031397792989        1.30600883923862        0.61220161709848
C            0.40895501820770       -1.13790705088680        0.55431337827794
C            1.17081902872540       -1.41426632605771       -0.60697449900551
O            1.39532876379019       -0.56321280615456       -1.59339846998876
C            1.80343724215325       -2.69017154432837       -0.69935713870105
C            2.65603434541137       -3.03103921866057       -1.76996694164559
C            3.22899988846401       -4.27932124100909       -1.83116376302630
C            2.97822220103266       -5.22050866963842       -0.83814716033547
C            2.14164997364223       -4.90937454906365        0.22620357353584
C            1.56245498759696       -3.65500058603668        0.29769378857014
O            0.74081893024601       -3.39367748654543        1.34958525183805
C            0.16823968577170       -2.17715403109307        1.51196737441091
O           -0.52836962085639       -2.03241435522616        2.51851394294811
H           -5.09764661329139        1.31400998969587       -2.67326347985670
H           -7.26662291022334        0.87040049801083       -1.54586047483844
H           -7.29877364554188       -0.05188543021690        0.74550710007638
H           -5.17015904238161       -0.50859505233890        1.92361839766840
H           -1.87175803268326       -1.10890690687455        2.40478495027850
H           -0.33050906561592        0.19650779098283        2.01610691133308
H           -0.94603842327674        2.76860256141636        0.64108588058623
H            0.42432018986725        4.77128566800299        0.28175363829595
H            2.64267353746584        5.80674333362743       -0.05135555257084
H            5.09224288549049        5.58152144689393       -0.18494960335701
H            6.15044730631749        3.37127994873533        0.05547087483303
H            4.76875785834978        1.36653447437156        0.42878371034304
H            2.57116224905992        0.34506531606543        0.73206267775573
H            0.74429039541421        0.19779095445463       -1.61750891753403
H            2.83897882236512       -2.28729341435057       -2.52824693613928
H            3.87909733856779       -4.53080128110749       -2.65517345648338
H            3.43300464092844       -6.19719450956245       -0.88868478170223
H            1.93044029924087       -5.62532685685335        1.00381130197789
