  53
        -95.63994279
 O         -0.4946904369        1.0811605015       -1.7946803156
 C         -1.4991532328        0.8460046757       -1.1164340898
 O         -2.6909988437        1.1149399205       -1.7120193053
 C         -3.8711888726        0.9560268021       -1.0500052028
 C         -5.0331185131        1.2946132417       -1.7142447213
 C         -6.2624726363        1.1396035770       -1.0788318261
 C         -6.3224013613        0.6379318878        0.2168487406
 C         -5.1726297748        0.2953919225        0.8873329006
 C         -3.9116903294        0.4431419993        0.2649208790
 C         -2.6982250805        0.0775406873        0.9008922929
 O         -2.7723058298       -0.4341783101        2.1256643247
 C         -1.4759239831        0.3564087663        0.2229890242
 C         -0.1416660768        0.2300326771        0.9222633967
 C          0.8240121664        1.3566137896        0.6524528810
 C          0.3273316288        2.6699950083        0.5519818788
 C          1.1710902273        3.7258048752        0.3560502365
 C          2.5652692478        3.5311454551        0.2616621729
 C          3.4635785707        4.5956651173        0.0533409074
 C          4.8131612109        4.3678274562       -0.0174050709
 C          5.3192506102        3.0679270711        0.1166260080
 C          4.4705771679        2.0124989687        0.3200812939
 C          3.0770154352        2.2146952982        0.3968735101
 C          2.1806755428        1.1482550629        0.6026844377
 C          0.3226455402       -1.1641512986        0.5622159332
 C          1.0681767681       -1.5093277657       -0.5948888638
 O          1.3562223463       -0.6854585423       -1.5903706923
 C          1.6063192788       -2.8260352278       -0.6681643502
 C          2.4392835928       -3.2416067298       -1.7299391956
 C          2.9170246669       -4.5298675633       -1.7751526823
 C          2.5909723914       -5.4396092993       -0.7751139741
 C          1.7718113826       -5.0553459488        0.2810089518
 C          1.2880146640       -3.7617710166        0.3368517052
 O          0.4795687526       -3.4305131881        1.3804879903
 C         -0.0015842167       -2.1717364075        1.5259981518
 O         -0.6931464675       -1.9649072302        2.5272355228
 H         -4.9661548027        1.6763347273       -2.7200637943
 H         -7.1668437116        1.4137292911       -1.5984058028
 H         -7.2799116057        0.5192216236        0.7007560652
 H         -5.1978319846       -0.0921670556        1.8924487692
 H         -1.9596359703       -0.9463118073        2.3938441113
 H         -0.3230670913        0.2337987087        2.0068173228
 H         -0.7380891079        2.8337944765        0.6291574069
 H          0.7785134077        4.7286574813        0.2725143002
 H          3.0693599879        5.5962132639       -0.0502491032
 H          5.4958450034        5.1891674372       -0.1775277234
 H          6.3852588351        2.9050253997        0.0572718562
 H          4.8559062580        1.0082632128        0.4205988622
 H          2.5877807582        0.1540828759        0.7235484911
 H          0.7609908696        0.1191501265       -1.6241683747
 H          2.6824796141       -2.5211767330       -2.4936735330
 H          3.5517214688       -4.8373687502       -2.5922370606
 H          2.9720447709       -6.4478805836       -0.8121679902
 H          1.5022844053       -5.7463709092        1.0630945846
