  45
  -68.6026949800000        1.00000000000000      !
 C         -2.2649329871        2.5950297400       -2.5763507104
 C         -0.8800961315        2.6146635024       -2.5967137636
 C         -0.1721520765        1.7688630351       -1.7612265314
 C         -0.8228959238        0.8988612929       -0.9013871880
 C         -2.2192423426        0.8809901660       -0.8856533608
 C         -2.9313051549        1.7342116113       -1.7275596296
 N         -2.8943313898        0.0270077578       -0.0432099956
 C         -2.2634299908       -0.8429691337        0.8169903818
 C         -3.0183050812       -1.6812311707        1.6363867105
 C         -2.3956897362       -2.5568675193        2.5033346396
 C         -1.0130853606       -2.6058643728        2.5649680652
 C         -0.2627243786       -1.7746689549        1.7520843893
 C         -0.8689466286       -0.8904181637        0.8744564675
 C         -0.0002254444       -0.0036026485        0.0008427272
 C          0.8369763657        0.8804233402        0.9077792790
 C          0.2002774806        1.7459914825        1.7821308725
 C          0.9216195483        2.5751767881        2.6229943113
 C          2.3057785018        2.5430792878        2.5931551505
 C          2.9583115240        1.6867046490        1.7293441732
 C          2.2329505589        0.8505371760        0.8816797456
 N          2.8944108035        0.0011768229        0.0241253082
 C          2.2494482679       -0.8635435784       -0.8310165290
 C          2.9914338218       -1.7074911024       -1.6564544922
 C          2.3555816548       -2.5789079451       -2.5176332607
 C          0.9719574540       -2.6186448733       -2.5666794280
 C          0.2343882921       -1.7812079446       -1.7484926952
 C          0.8541679667       -0.9002421785       -0.8770793184
 H         -2.8278210285        3.2517483852       -3.2227976652
 H         -0.3555878881        3.2860417006       -3.2591397782
 H          0.9076495739        1.7813266331       -1.7711251050
 H         -4.0119788557        1.7132594378       -1.7076598764
 H         -3.9021579149        0.0369300950       -0.0594740272
 H         -4.0977135828       -1.6368288079        1.5842406560
 H         -2.9917056977       -3.2012020035        3.1323110453
 H         -0.5227141745       -3.2875854258        3.2424583578
 H          0.8161801642       -1.8092619250        1.7949266276
 H         -0.8795237953        1.7673401843        1.8008902046
 H          0.4068570173        3.2426116291        3.2967881613
 H          2.8793211113        3.1859590271        3.2440892010
 H          4.0388442327        1.6564004617        1.7013747082
 H          3.9023488892       -0.0012539922        0.0361649541
 H          4.0712733885       -1.6713865467       -1.6130518248
 H          2.9413912789       -3.2280693599       -3.1511918970
 H          0.4709256717       -3.2985990212       -3.2383988337
 H         -0.8450260739       -1.8081744487       -1.7823280232
