  34
  -61.7833995967000        1.00000000000000      !
 Br         6.6113908415        0.4312713617       -0.0091811690
 C          4.7238704701        0.6766080792       -0.0017506036
 C          4.2259802652        1.9941239935       -0.0064613507
 C          2.8794622352        2.2117506619       -0.0005250009
 C          1.9852532886        1.1183571047        0.0084184153
 N          0.6637661602        1.3349524804        0.0131184581
 C         -0.1364796126        0.2856110655        0.0153290379
 C         -1.5665781913        0.4953949381        0.0157424721
 C         -2.0661284118        1.8014076532        0.0223977892
 C         -3.4188005312        2.0436424726        0.0164509084
 C         -4.2828994881        0.9550493942        0.0026640926
 Br        -6.1643320742        1.2637556547       -0.0109568036
 C         -3.8192287696       -0.3419658499       -0.0017789757
 C         -2.4455045668       -0.6063755983        0.0058005303
 C         -1.9169197060       -1.9635950506        0.0026038048
 C         -2.7420149559       -3.0940284729       -0.0054854892
 C         -2.2149237049       -4.3674481343       -0.0092578117
 C         -0.8382996664       -4.5611791811       -0.0041603058
 C         -0.0023491865       -3.4689163073        0.0047184044
 C         -0.5231982563       -2.1719658505        0.0077506825
 C          0.3838464365       -1.0454801343        0.0129237919
 N          1.6836517901       -1.2697530556        0.0128411938
 C          2.5049137413       -0.2108875094        0.0105654856
 C          3.9010904668       -0.4126067887        0.0070231193
 H          4.9213594351        2.8195122958       -0.0151761280
 H          2.4693238618        3.2088570524       -0.0036894033
 H         -1.3569159587        2.6136803799        0.0315260691
 H         -3.8073351848        3.0498799905        0.0211488640
 H         -4.5367232416       -1.1457195394       -0.0120718257
 H         -3.8144556530       -2.9859720592       -0.0089846896
 H         -2.8789545047       -5.2190764221       -0.0162192482
 H         -0.4313067508       -5.5608561143       -0.0071819343
 H          1.0703441173       -3.5806482202        0.0090843672
 H          4.2804740226       -1.4217215526        0.0102474582
