  50
        -70.59281776
 C          1.6791989339        5.5198501029       -0.1756009985
 C          0.6909495262        4.4050969003       -0.1037540851
 C         -0.6755567501        4.6259103316       -0.0623111524
 C         -1.5939778838        3.5913226676       -0.0042209483
 C         -1.1133836035        2.2514543541        0.0133607034
 C         -1.7257240011        1.0052107446       -0.0043834106
 C         -3.0749988903        0.5640906841       -0.0223399192
 C         -3.3077779558       -0.7807117459        0.0196155670
 Br        -5.1293320717       -1.3589760512        0.0045044691
 C         -2.2903985099       -1.7745416104        0.0839765628
 C         -2.6311892895       -3.2247287089        0.1638895754
 C         -0.9557243957       -1.3470745496        0.0721529481
 C         -0.6708667179       -0.0028634929        0.0081606501
 N          0.5327858603        0.6440214614        0.0194688479
 C          1.7885633328        0.0487901851        0.0210821691
 C          2.7911609185        0.5011244584        0.8816263806
 C          4.0364704651       -0.0923123479        0.8798886469
 C          4.3395578905       -1.1510887035        0.0266246587
 C          5.6977566863       -1.8289590276       -0.0056865667
 C          6.6817569210       -1.2269519650        1.0010512099
 C          6.2985592241       -1.6791827973       -1.4112743474
 C          5.5214724020       -3.3176776193        0.3274248865
 C          3.3282179873       -1.5920068775       -0.8306797079
 C          2.0792473665       -1.0142736281       -0.8391565541
 C          0.3000653283        2.0325644719        0.0115553811
 C          1.1923021709        3.0534140518       -0.0746594061
 H          2.3515636376        5.4931366582        0.6843330677
 H          2.2956920175        5.4272446755       -1.0719514533
 H          1.1785065924        6.4845695840       -0.1956122408
 H         -1.0374803098        5.6443457153       -0.0758353420
 H         -2.6535649004        3.7845660578        0.0267110336
 H         -3.8811114098        1.2778140826       -0.0617961693
 H         -3.2326474551       -3.4365241037        1.0499389637
 H         -1.7267956516       -3.8259306218        0.2080771030
 H         -3.2144354778       -3.5369991565       -0.7045817747
 H         -0.1685759378       -2.0824659133        0.1310749250
 H          2.5719858311        1.2962856339        1.5781170061
 H          4.7746030400        0.2815769480        1.5701132220
 H          6.3127366072       -1.3298574855        2.0188463788
 H          6.8636694593       -0.1755723502        0.7906845948
 H          7.6327172064       -1.7511960703        0.9348913624
 H          7.2820309167       -2.1423945162       -1.4483733177
 H          5.6722745990       -2.1506437312       -2.1633437176
 H          6.4030097166       -0.6264083670       -1.6655460851
 H          6.4875480842       -3.8175393211        0.3273785183
 H          4.8821534067       -3.8139794438       -0.3973061413
 H          5.0735764275       -3.4318570116        1.3124468124
 H          3.5204078676       -2.4012008184       -1.5185038424
 H          1.3275855141       -1.3520909027       -1.5364269031
 H          2.2566208078        2.8882243187       -0.1390609681
