  50
  -70.2757792991000       0.341188741115656      !
 C          1.6968755031        5.5065856604       -0.1769191674
 C          0.7054542127        4.3952129929       -0.0980759321
 C         -0.6596265740        4.6217540587       -0.0428125470
 C         -1.5825518874        3.5912435133        0.0156187067
 C         -1.1080439979        2.2488057508        0.0162462371
 C         -1.7257612451        1.0055457789       -0.0079305773
 C         -3.0769606428        0.5692110720       -0.0152223895
 C         -3.3138181819       -0.7752512428        0.0186322773
 Br        -5.1374389282       -1.3473423594        0.0202265448
 C         -2.2996685315       -1.7733939248        0.0610472368
 C         -2.6448946098       -3.2228583420        0.1366279574
 C         -0.9633594949       -1.3505146624        0.0354622780
 C         -0.6751299504       -0.0067651036       -0.0161234738
 N          0.5307404919        0.6349884020       -0.0068751105
 C          1.7840847428        0.0329064483       -0.0142235843
 C          2.7812864725        0.4545405529        0.8694913151
 C          4.0170988479       -0.1514905206        0.8603996989
 C          4.3250407170       -1.1858155221       -0.0266822644
 C          5.7029351934       -1.8229304139        0.0124833472
 C          6.7748144116       -0.7363579423       -0.1566126988
 C          5.9034776601       -2.8622097826       -1.0939205475
 C          5.8807938969       -2.5203605070        1.3694471243
 C          3.3225542060       -1.5947104199       -0.9033288325
 C          2.0749843492       -1.0059139393       -0.9000176035
 C          0.3044469672        2.0239734705        0.0012159044
 C          1.2013399641        3.0408538568       -0.0807525488
 H          2.3821442311        5.4715359345        0.6720061279
 H          2.2995737864        5.4163990475       -1.0824950157
 H          1.2006128481        6.4733804585       -0.1838750814
 H         -1.0169300332        5.6417875568       -0.0468414844
 H         -2.6408467499        3.7889391156        0.0580134941
 H         -3.8805807720        1.2861054215       -0.0402209236
 H         -3.2281588286       -3.4386712260        1.0339485051
 H         -1.7422510291       -3.8278413149        0.1574237916
 H         -3.2480179160       -3.5265866243       -0.7212507081
 H         -0.1774177418       -2.0883303795        0.0761532058
 H          2.5609808533        1.2331058864        1.5844193861
 H          4.7555753008        0.1853806546        1.5717224568
 H          6.7451574674       -0.0149875095        0.6549566762
 H          6.6265889804       -0.2037821970       -1.0937075276
 H          7.7640524159       -1.1883929168       -0.1694390630
 H          6.9122744905       -3.2650439882       -1.0332358616
 H          5.2071486041       -3.6905828727       -0.9875371490
 H          5.7786506905       -2.4141296570       -2.0770688986
 H          6.8612296488       -2.9881924236        1.4248026305
 H          5.1228549965       -3.2901697557        1.4988488716
 H          5.7913679118       -1.8139549497        2.1903116295
 H          3.5068193974       -2.3823893275       -1.6152650006
 H          1.3247652494       -1.3219660519       -1.6094458439
 H          2.2646022354        2.8704288351       -0.1501284437
  50
  -70.2757195781000       0.320294012504752      !
 C          1.5681215546        5.6247479574       -0.1761750444
 C          0.6111327092        4.4809090392       -0.1558599996
 C         -0.7615315258        4.6652383590       -0.1772341483
 C         -1.6532904365        3.6068712746       -0.1506154969
 C         -1.1378323478        2.2809196820       -0.1006260006
 C         -1.7204953738        1.0239619404       -0.0089938410
 C         -3.0585382273        0.5514561822        0.0453291378
 C         -3.2582206064       -0.7992163863        0.0720639368
 Br        -5.0643660146       -1.4206673554        0.1374232130
 C         -2.2173048227       -1.7697005662        0.0446153738
 C         -2.5201622872       -3.2304225600        0.0389170358
 C         -0.8936735114       -1.3093768443        0.0220834601
 C         -0.6421253188        0.0427949241        0.0187303644
 N          0.5464712329        0.7158487348       -0.0388441428
 C          1.8056981824        0.1280347910       -0.0117291461
 C          2.0915511283       -0.8876339982        0.9060170139
 C          3.3200638942       -1.5062469740        0.8982341801
 C          4.3165333808       -1.1536157965       -0.0157473606
 C          5.6337951768       -1.9087078306       -0.0121670664
 C          6.5961716546       -1.4225731875       -1.0989188222
 C          5.3481261220       -3.3981864221       -0.2572948325
 C          6.3178303880       -1.7305454920        1.3508708703
 C          4.0305376627       -0.1192471309       -0.9038847812
 C          2.8046683037        0.5149901686       -0.9071337691
 C          0.2813443608        2.0963867904       -0.1095870115
 C          1.1478416335        3.1429060870       -0.1108815211
 H          2.1777003760        5.6298550751        0.7293430313
 H          2.2499078838        5.5407302375       -1.0240954456
 H          1.0416612583        6.5729252083       -0.2450097865
 H         -1.1494154444        5.6734354205       -0.2140369820
 H         -2.7182196347        3.7705001422       -0.1661791344
 H         -3.8814905254        1.2463982979        0.0584974317
 H         -3.1383092209       -3.4985176350       -0.8198143512
 H         -3.0713124299       -3.5181415528        0.9364950044
 H         -1.6006213826       -3.8084469056       -0.0027286329
 H         -0.0891611087       -2.0271759521       -0.0117816445
 H          1.3482043413       -1.1613331729        1.6394874506
 H          3.5059508351       -2.2812595511        1.6259445531
 H          6.8602584726       -0.3780058464       -0.9515810654
 H          6.1623010014       -1.5458737774       -2.0884484796
 H          7.5121137353       -2.0082528691       -1.0592223033
 H          6.2804055116       -3.9573249277       -0.2925518242
 H          4.7294243884       -3.8196419170        0.5299756200
 H          4.8307716642       -3.5299074016       -1.2053660531
 H          7.2610406427       -2.2722001117        1.3686165626
 H          5.6955238130       -2.1045351515        2.1590355153
 H          6.5203809991       -0.6776871518        1.5356681861
 H          4.7647754065        0.1987385625       -1.6256912215
 H          2.5961837209        1.2838887602       -1.6355483268
 H          2.2174772183        3.0098314664       -0.0625672452
  50
  -70.2756435592000       0.295537743189390      !
 C          1.6782235056        5.5104758197       -0.3708261515
 C          0.6905589513        4.3990981376       -0.2532168422
 C         -0.6754423201        4.6217771491       -0.2055715313
 C         -1.5934048058        3.5900444917       -0.1049927877
 C         -1.1128619353        2.2512250557       -0.0487065416
 C         -1.7255334883        1.0053472454       -0.0200569295
 C         -3.0749856195        0.5645076194       -0.0104944963
 C         -3.3075436149       -0.7781201316        0.0772974902
 Br        -5.1292449208       -1.3557190402        0.0987731051
 C         -2.2897309809       -1.7698179131        0.1638655361
 C         -2.6299391889       -3.2164945249        0.2940662344
 C         -0.9551728985       -1.3435822852        0.1251254862
 C         -0.6707549066       -0.0022840160        0.0148184850
 N          0.5330475558        0.6440650511       -0.0066306035
 C          1.7886913463        0.0486118022        0.0019737606
 C          2.7997443008        0.5281249405        0.8375475916
 C          4.0448880873       -0.0656384762        0.8428471795
 C          4.3394379364       -1.1516494757        0.0214159361
 C          5.6971531933       -1.8308455226       -0.0022097185
 C          6.6910652239       -1.1969922712        0.9748055564
 C          6.2841704795       -1.7269753451       -1.4177291672
 C          5.5239198775       -3.3079056435        0.3806819789
 C          3.3196765541       -1.6196434414       -0.8112042559
 C          2.0707693852       -1.0419046150       -0.8261678113
 C          0.3004685863        2.0317310589       -0.0572590033
 C          1.1919702800        3.0488337381       -0.1852445792
 H          2.3589817243        5.5113274284        0.4828962996
 H          2.2858862758        5.3885856178       -1.2696989798
 H          1.1775035393        6.4742741369       -0.4171863403
 H         -1.0373285374        5.6394085056       -0.2485481012
 H         -2.6526087348        3.7846839057       -0.0699645636
 H         -3.8813392922        1.2769543368       -0.0651635815
 H         -3.2227143319       -3.3991860790        1.1923613745
 H         -1.7252458896       -3.8163714796        0.3488549496
 H         -3.2217176326       -3.5564702649       -0.5580758924
 H         -0.1675948010       -2.0770459572        0.2001370459
 H          2.5875264466        1.3455399321        1.5100165642
 H          4.7898073703        0.3300754600        1.5133310423
 H          6.3320245573       -1.2666906947        1.9989659312
 H          6.8710642788       -0.1530666259        0.7287060519
 H          7.6412527361       -1.7235492947        0.9163601589
 H          7.2671618571       -2.1916055471       -1.4494266008
 H          5.6504729012       -2.2222659578       -2.1479556865
 H          6.3862810237       -0.6830421136       -1.7069952523
 H          6.4898738141       -3.8079577971        0.3873739800
 H          4.8774528296       -3.8271321371       -0.3212892069
 H          5.0856843805       -3.3898971362        1.3732256688
 H          3.5049933531       -2.4507903874       -1.4742926831
 H          1.3122578084       -1.4017874647       -1.5047299037
 H          2.2555817051        2.8811464881       -0.2546786681
  50
  -70.2738215193000       4.297950319020182E-002 !
 C          1.7031325134        5.4824495697       -0.4204348920
 C          0.7083075350        4.3729797768       -0.3564534602
 C         -0.6576169908        4.5989379580       -0.3845110857
 C         -1.5822165044        3.5708878242       -0.3098353037
 C         -1.1086727877        2.2329774710       -0.2009786979
 C         -1.7264192953        1.0002680289       -0.0355560612
 C         -3.0765165326        0.5754091057        0.0734400246
 C         -3.3181053615       -0.7647624751        0.1742521506
 Br        -5.1409343030       -1.3218949262        0.3132110478
 C         -2.3088535630       -1.7689208864        0.1741271039
 C         -2.6607023413       -3.2170097842        0.2441911589
 C         -0.9721616811       -1.3540738753        0.1020363184
 C         -0.6777563054       -0.0126561992        0.0219392925
 N          0.5283875528        0.6196162461       -0.0924167214
 C          1.7803183499        0.0172951313       -0.0784199790
 C          2.0957827278       -0.9625096654        0.8662228886
 C          3.3415016309       -1.5522169523        0.8723268101
 C          4.3227932422       -1.2050208047       -0.0563361806
 C          5.7111867520       -1.8204523539       -0.0258805017
 C          5.7079464538       -3.2039193833        0.6348876831
 C          6.6192681908       -0.8808173715        0.7823177197
 C          6.2774831573       -1.9769551580       -1.4441052585
 C          3.9985199543       -0.2158929431       -0.9864479701
 C          2.7588057542        0.3839852388       -1.0066370658
 C          0.3029689765        2.0039953505       -0.2179613018
 C          1.2020355000        3.0218064132       -0.2594377491
 H          2.3886170980        5.3368680468       -1.2570334766
 H          1.2098484346        6.4437783305       -0.5363323072
 H          2.3050900080        5.5075234665        0.4900122083
 H         -1.0141260445        5.6159467434       -0.4668930190
 H         -2.6413044557        3.7676651743       -0.3337649575
 H         -3.8764229903        1.2969462433        0.0708672022
 H         -3.2179526800       -3.4401889839        1.1561439530
 H         -1.7618377234       -3.8278157178        0.2291477018
 H         -3.2912272488       -3.5063099492       -0.5987701830
 H         -0.1914838820       -2.0984656192        0.0921274379
 H          1.3673819029       -1.2273624875        1.6176760880
 H          3.5459057117       -2.2923701215        1.6285778311
 H          4.9755095275       -3.8535707577        0.1606675846
 H          5.4884718205       -3.1400204341        1.6972947214
 H          6.6891866834       -3.6618640205        0.5313784295
 H          7.6318023756       -1.2764124853        0.8203242205
 H          6.6490022949        0.1069091924        0.3277122110
 H          6.2483065697       -0.7764518618        1.7997404188
 H          7.1969649258       -2.5571361103       -1.4119825566
 H          6.5135878872       -1.0153253977       -1.8911667569
 H          5.5664956308       -2.4952777665       -2.0838162145
 H          4.7223543005        0.0919727165       -1.7236264742
 H          2.5223325882        1.1148141274       -1.7650227829
 H          2.2669083248        2.8566978967       -0.2055778592
