62
 energy: -112.100897900281 gnorm: 0.000032455305 xtb: 6.7.1 (edcfbbe)
F           -5.47830724855920       -2.90020436674626       -0.44190496294910
C           -4.32553729042576       -2.52931120852679        0.10281672520920
N           -3.84721024910287       -3.30554919187828        1.04573572709017
C           -2.71735344534499       -2.95353104318741        1.61347888487896
F           -2.26536722386626       -3.74775684230518        2.57772368155272
C           -2.00144302275134       -1.81544061376826        1.25542772993983
F           -0.87463341956806       -1.53216712221585        1.92112848851522
C           -2.47175392741987       -0.98541911897696        0.23109481768602
C           -1.74917375814064        0.28134029154729       -0.15372002301730
C           -0.23793618782460        0.12862268941674       -0.11122582777569
C            0.34619149072998       -1.03363698877120       -0.62600708043725
C            1.71387497614483       -1.20985769050805       -0.65753298935511
C            2.51281276730198       -0.18992783526399       -0.16159772277291
C            1.93695037689794        1.00747710874403        0.32071185021315
C            0.55899283703035        1.16274567189357        0.34483009116680
C            3.02737537469206        1.85863407642636        0.70290807958115
C            3.09760221096042        3.13212136985030        1.25258101713438
C            4.34073097790609        3.66393278569877        1.52904380046580
C            5.50299222819259        2.93713372454071        1.27828220953423
C            5.45852126276009        1.66887592834029        0.73227284080423
C            4.21268266736777        1.13775483441284        0.42996898587762
N            3.88564187093998       -0.09811803114375       -0.09267583782341
C            4.79447923554960       -1.09792873835625       -0.47079869071175
C            5.85298899445133       -0.79499335650985       -1.32177577345024
C            6.74978747206648       -1.78262430893720       -1.68522529657258
C            6.59349522497405       -3.07587516286396       -1.21482489790753
C            5.53661305609884       -3.37971743309333       -0.37277926651776
C            4.64070024486300       -2.39675372574610        0.00483861125728
C           -2.10887642700093        0.82035470772638       -1.52856613360041
C           -1.85667161344598        0.26423425780611       -2.76362557124878
C           -2.24326759920261        0.96521364501394       -3.89766174473524
C           -2.86171401708601        2.20117788330325       -3.79389477619218
C           -3.10726892070123        2.76896938344877       -2.55470162617132
C           -2.72621607349389        2.07344028557109       -1.41990881220250
C           -2.84918874870338        2.41205836692760       -0.01180750451511
C           -3.39907781641736        3.52062586671742        0.61052842721946
C           -3.37667350142286        3.58603110053087        1.99439461406443
C           -2.81236431523770        2.56621810984690        2.74495694243237
C           -2.26028495152598        1.45042598746066        2.12886621801303
C           -2.28103158420733        1.38376725239436        0.75245839447364
C           -3.69171997752539       -1.36757614819460       -0.33365325764702
F           -4.28751565156057       -0.63551879710097       -1.28175345404451
H           -0.28799889571651       -1.82561265223862       -0.99996196028480
H            2.14264803648182       -2.11258541080384       -1.06500749764843
H            0.12226899627608        2.07688107527561        0.71608628970120
H            2.19529418287622        3.68691226256221        1.46127277732135
H            4.41914581160522        4.65317074641212        1.95462876336152
H            6.46072666947689        3.37378302861581        1.52002717904839
H            6.36394090191286        1.10715913434840        0.55904906965263
H            5.95841678807683        0.20961653301760       -1.70339294457951
H            7.57008205959243       -1.54248539903362       -2.34528807325234
H            7.29376326182162       -3.84495293621881       -1.50352202200406
H            5.41362395074186       -4.38586849079443       -0.00038685153595
H            3.82853462161192       -2.62365744321713        0.67923352811726
H           -1.37361384032708       -0.69693159517016       -2.85656358130649
H           -2.05936296720856        0.53960258501493       -4.87278434381864
H           -3.15443770358580        2.72701416427777       -4.69061384552367
H           -3.58638547214864        3.73298254538827       -2.47507619359317
H           -3.83737084858045        4.31661515750967        0.02805949202048
H           -3.80257456726136        4.44255123998838        2.49577853562907
H           -2.80031340519860        2.63753102868000        3.82214695341907
H           -1.81207042050610        0.66846623593664        2.72247595140333
