70
 energy: -110.332488166287 gnorm: 0.000030258751 xtb: 6.7.1 (edcfbbe)
O           -4.25295722302425       -3.78844242063187        1.03450452020549
C           -3.10243816945165       -4.10201190083271        1.21933039496762
C           -1.98651359004675       -3.17144601449038        1.37452907011000
C           -2.19319104623741       -1.84411405415339        1.48956723000482
C           -1.03557804920468       -0.93047040354662        1.66890083636660
C            0.18315787980427       -1.41188952659036        0.87676609020304
C            0.11823523581850       -1.33331425626021       -0.63048384660417
C            0.80402020782124       -2.31679383456770       -1.35313668099235
C            0.82168775429505       -2.35220300989367       -2.73209416510830
C            0.12797427365934       -1.39814479467024       -3.45646192056165
C           -0.56083706577291       -0.42008291114465       -2.77161770586936
C           -0.56023979119718       -0.36627806505927       -1.37722541131280
N           -1.30440202982875        0.68560879685137       -0.76324021768973
C           -2.67829379159456        0.44286037214461       -0.59086837467371
C           -3.28583023492391       -0.69296617466069       -1.12405421610557
C           -4.62987368428419       -0.94753874731434       -0.91400899087049
C           -5.40407686869578       -0.06733728054321       -0.18046704701885
C           -4.82028823566035        1.07017020014203        0.34867858519372
C           -3.47130414422685        1.31360539959279        0.15718899780614
S           -2.74553155628214        2.73427772430094        0.93352722941206
C           -1.47839486620224        3.05480962388339       -0.26097696113402
C           -1.09549425037683        4.36737779073774       -0.46890274600158
C           -0.04364041645055        4.66179072784887       -1.31730120182258
C            0.63262544518938        3.62527311412022       -1.93227249392225
C            0.23605468672294        2.31395044265436       -1.74217404287030
C           -0.85099480835985        1.99912398797970       -0.92830926589645
P            1.65755896319407       -0.52156174251675        1.64722782070422
O            1.77757970671943       -0.92114569259580        3.05401541644653
C            3.08562063736294       -1.01377067690900        0.63269698828244
C            4.06582342090782       -1.75474016962010        1.27946638685956
C            5.17596964480464       -2.19991556648200        0.58423870142471
C            5.30838667827640       -1.90334077086620       -0.76226175229422
C            4.33430566030724       -1.15942586611863       -1.40970346011465
C            3.22259445894017       -0.71367667575078       -0.71825962889895
C            1.48244936409218        1.29205974515548        1.51937794372459
C            0.60588288762186        1.88157172069211        2.42416979716139
C            0.50306293701879        3.25709455255637        2.50299858116225
C            1.30111629391413        4.05547668835045        1.70074114669905
C            2.20153066586303        3.47277675234170        0.82656626818341
C            2.29227474141111        2.09506905701899        0.73010306102362
C            0.41216033572635       -2.85102812999501        1.29421678430887
C           -0.62085553590324       -3.66834454510507        1.48005906742096
H           -2.80725383309385       -5.16971939183449        1.27409637805604
H           -3.19686849896439       -1.44888286777620        1.51905442370672
H           -1.29168579482167        0.10298510090262        1.45339340492117
H           -0.74293874086617       -0.98416174403076        2.72987470624175
H            1.34208976109016       -3.08176392056045       -0.81688266305347
H            1.37066298896074       -3.13099438270442       -3.23912871818413
H            0.11608404603901       -1.42027655003906       -4.53534744277117
H           -1.12687952233360        0.32708806097657       -3.31053138713720
H           -2.69991087091920       -1.39686034958995       -1.69379724719706
H           -5.06462738148771       -1.84763077021032       -1.31823323352548
H           -6.45016848646663       -0.26631392392806       -0.01124627759920
H           -5.39596253801624        1.76965452910092        0.93505544040528
H           -1.62109824174065        5.15012782420160        0.05601784196387
H            0.25261306837068        5.68638178484305       -1.47790173116041
H            1.47543126020562        3.83063551572254       -2.57501122762854
H            0.78325757183263        1.52601186116284       -2.23523813168354
H            3.93976013858586       -1.96778606519596        2.33162412949119
H            5.93622230607502       -2.77661063110857        1.09002361789343
H            6.17269061964344       -2.24982118110009       -1.30947078210638
H            4.44038316066962       -0.92732128394001       -2.45946098432003
H            2.46414787041108       -0.13911518535395       -1.22815948281503
H            0.02655752874534        1.25748614148031        3.08767221520888
H           -0.19134857087028        3.70559022633661        3.19746417636073
H            1.23343872430134        5.13085178439176        1.76878171282899
H            2.84346485560602        4.09310788773573        0.21880390855871
H            3.01019795210880        1.65424824291219        0.05559819724706
H            1.43224015723296       -3.19178857162923        1.41010001024367
H           -0.47983405203931       -4.70803460681966        1.73779835812691
