68
 energy: -95.917168186870 gnorm: 0.000040902764 xtb: 6.7.1 (edcfbbe)
C           -3.55912145857263       -1.74148683355439       -2.18590431499819
C           -3.72143891396737       -1.65823731292234       -0.66441599697205
C           -3.12006831515919       -2.89854747299624        0.00593597979863
C           -5.17251481505691       -1.47433897847887       -0.27666256473219
C           -6.24261715811314       -2.31082762477064       -0.50998120108536
C           -7.50095595232067       -1.93386588427149       -0.05762794168658
C           -7.68226337648162       -0.73641151735633        0.61713467856049
C           -6.61225252768688        0.11132466190287        0.85596892010025
C           -5.35549988345784       -0.26211610210559        0.40705392029226
C           -4.07051467754868        0.40762601623894        0.50834513433059
C           -3.70939813130661        1.61559840387301        1.08472688515779
C           -2.38594283714194        2.01228127037799        1.04110153940252
C           -1.41825688423072        1.22114424462026        0.41764123495121
N           -0.08069948700929        1.63233515530911        0.38227835059800
C            0.23920678319917        2.98329767520174        0.21176257144736
C           -0.53013927632291        3.79428764954070       -0.62349678847690
C           -0.21052171790054        5.12837061322724       -0.78719041234406
C            0.88286841039497        5.67461461081169       -0.13421967519608
C            1.65352339461859        4.87299093498356        0.69277570228466
C            1.33554040498913        3.54063079768121        0.87148486468982
C            0.94037480637176        0.68555941005233        0.53106337392431
C            0.78628210277096       -0.38043858478724        1.42080794882271
C            1.78436048473956       -1.32262371057452        1.58263187058020
C            2.95673025674908       -1.19422001030087        0.85397631812929
C            3.11612128707290       -0.12563401710813       -0.04203181610685
C            2.11962465447793        0.80563894161093       -0.21199352517905
C            4.46609101377309       -0.19214189196779       -0.72120449392550
C            5.30479492653623        1.04895281193657       -0.39709487200113
C            4.31841265103226       -0.35560292804528       -2.23784630581911
C            5.05829238273049       -1.43494150869452       -0.09279165002949
C            6.28935702613801       -2.01340052432404       -0.31447652814435
C            6.62513882364218       -3.16662442706233        0.38381547088428
C            5.73915493407679       -3.73046785381515        1.28898169842673
C            4.49873887996238       -3.15640508563060        1.51774840539510
C            4.16093283257567       -2.00578458273386        0.82317260374047
C           -1.78700639066711        0.00572081076358       -0.16921018659224
C           -3.10070999721798       -0.39335622781669       -0.11450625464674
H           -2.50595792524233       -1.80542786809817       -2.44943469877452
H           -3.98363559135894       -0.85778951750472       -2.65858894565627
H           -4.06917233011014       -2.62078926646243       -2.57203935310071
H           -3.61642616023387       -3.79794140992639       -0.35069266958519
H           -2.05876975090691       -2.97194022753496       -0.22061081173040
H           -3.24212256809163       -2.83926265810376        1.08585879111371
H           -6.11392852841119       -3.24668902011849       -1.03461841062496
H           -8.34816096132162       -2.58125900545566       -0.23383563460312
H           -8.66980878441992       -0.46172623062953        0.96014454359966
H           -6.75704435229106        1.04389876858442        1.38175671241025
H           -4.44466659778078        2.23777207598855        1.57329363630533
H           -2.08675659057418        2.94451373039660        1.49824908308275
H           -1.37698093286551        3.36965644915670       -1.14293888803849
H           -0.81511489185285        5.74378087801308       -1.43783356229425
H            1.13216398761764        6.71660449510099       -0.26819968967548
H            2.50489443690957        5.29041297477339        1.21084388843511
H            1.93230143384808        2.92175239633615        1.52585503612298
H           -0.12807840648035       -0.45961798899933        1.99093924247035
H            1.65102944845172       -2.13778686136925        2.27845579504811
H            2.23060253812437        1.62574799758313       -0.90623778146673
H            4.82511707428657        1.94153550019742       -0.79232297865655
H            5.41290329426327        1.15990229889902        0.68022783450511
H            6.29487050325296        0.96025868017638       -0.83792683956022
H            3.83007976584716        0.51695082418966       -2.66555870165945
H            3.72048914113240       -1.23615296248946       -2.46529595890293
H            5.29549983128174       -0.47062831807674       -2.70108451368247
H            6.98842811454150       -1.58298878362924       -1.01710370038073
H            7.58793995047732       -3.62931078965450        0.21992743129275
H            6.02006291568352       -4.62781658796386        1.82212324093852
H            3.81087531976061       -3.59834823130477        2.22388499497120
H           -1.03626163919193       -0.60020827085496       -0.65498603548063
