  68
        -95.88082523
 C         -2.0133637902       -2.9819257797        0.6749726514
 C         -2.9733112850       -1.8515685968        1.0579910350
 C         -3.0536134793       -1.7109265098        2.5808670863
 C         -4.3448505068       -2.0645447080        0.4565921072
 C         -5.2300730769       -3.0983651155        0.6690858577
 C         -6.4490286527       -3.0847127423        0.0032920471
 C         -6.7736059278       -2.0501865979       -0.8601029044
 C         -5.8895509391       -1.0062357384       -1.0794249852
 C         -4.6726708710       -1.0170047595       -0.4176447957
 C         -3.5648276415       -0.0786977408       -0.4475673855
 C         -3.3849112686        1.1053928654       -1.1448783397
 C         -2.2010649948        1.8020799060       -0.9914058246
 C         -1.1970984524        1.3355879940       -0.1400000121
 N          0.0019873443        2.0438050243       -0.0060296328
 C         -0.0065385440        3.4415946700       -0.0016531732
 C          1.0252268295        4.1594214656       -0.6067343263
 C          1.0128009662        5.5403671845       -0.5942091977
 C         -0.0264973297        6.2282372971        0.0106896584
 C         -1.0565714375        5.5204294832        0.6082657387
 C         -1.0491960255        4.1394667927        0.6082718400
 C          1.2040043205        1.3422672461        0.1257352397
 C          2.2193546774        1.8260226698        0.9540792135
 C          3.4070885703        1.1350654072        1.1027928402
 C          3.5794978143       -0.0623653106        0.4267235021
 C          2.5612064728       -0.5531813056       -0.4045737949
 C          1.3864176162        0.1393951459       -0.5659151439
 C          2.9659206813       -1.8694391642       -1.0284985124
 C          3.0138414960       -1.7701959083       -2.5557721113
 C          2.0168119796       -2.9910024291       -0.5949200585
 C          4.3488781329       -2.0655393265       -0.4478910520
 C          5.2326367618       -3.1021179331       -0.6528263897
 C          6.4622045994       -3.0723153131       -0.0073495450
 C          6.7985231848       -2.0191954724        0.8286541537
 C          5.9160883055       -0.9722826019        1.0400920594
 C          4.6886739059       -0.9990472773        0.3985334058
 C         -1.3869784009        0.1468332614        0.5731446593
 C         -2.5589001517       -0.5503136986        0.4096428593
 H         -1.0141665984       -2.7705028091        1.0488708256
 H         -1.9671815246       -3.0838631597       -0.4074036394
 H         -2.3514228406       -3.9252094378        1.0970116193
 H         -3.4152008338       -2.6343450166        3.0268349200
 H         -2.0720467704       -1.4862168912        2.9917999134
 H         -3.7355063602       -0.9062421737        2.8477926770
 H         -4.9878028464       -3.9094274452        1.3407091435
 H         -7.1521741052       -3.8894561260        0.1606033902
 H         -7.7273469079       -2.0591185408       -1.3675062513
 H         -6.1449134806       -0.2012175371       -1.7525003938
 H         -4.1493078895        1.4771668883       -1.8106639187
 H         -2.0384414505        2.7183940841       -1.5397187353
 H          1.8319988779        3.6255345240       -1.0869459415
 H          1.8173382006        6.0835386475       -1.0677794361
 H         -0.0339014854        7.3074498088        0.0158919509
 H         -1.8689427057        6.0476973475        1.0863047660
 H         -1.8480066156        3.5897232271        1.0840966629
 H          2.0630635280        2.7514397229        1.4886854810
 H          4.1805095896        1.5217291321        1.7493674561
 H          0.6042739650       -0.2270670189       -1.2140419296
 H          2.0230927740       -1.5591129540       -2.9515866482
 H          3.6874364515       -0.9714780436       -2.8589127279
 H          3.3685041029       -2.7046185503       -2.9842357621
 H          1.0096837963       -2.7919226891       -0.9538499262
 H          1.9931247145       -3.0630597915        0.4905767955
 H          2.3487461028       -3.9449023961       -0.9976696607
 H          4.9808358625       -3.9281186318       -1.3024236793
 H          7.1640591649       -3.8794129103       -0.1584039236
 H          7.7602031679       -2.0159442914        1.3208880638
 H          6.1806873968       -0.1527980724        1.6918359633
 H         -0.6125473521       -0.2050797308        1.2384602904
