  69
       -106.04316386
 C         -5.7179490620       -4.6535303186        0.2801006038
 C         -4.7414136457       -5.4385768061        0.8698548230
 C         -3.4065677354       -5.1012138308        0.7430934734
 C         -3.0265145735       -3.9694769341        0.0256660394
 C         -1.6091765628       -3.5967503350       -0.1023040337
 C         -0.6201059339       -4.5617019777       -0.2916993379
 C          0.7103194510       -4.1966996893       -0.4090352066
 C          1.0811411945       -2.8670633594       -0.3403900845
 C          0.1048234915       -1.8912498347       -0.1549019400
 C          0.4607431486       -0.4737892340       -0.0892110495
 N         -0.5365870254        0.4020201196       -0.0203668101
 C         -0.1899906310        1.6836039330        0.0361556241
 C         -1.2711084111        2.6655760240        0.1196509307
 C         -0.9986549343        4.0200699839        0.2958393586
 C         -2.0446745325        4.9191827296        0.3832221279
 C         -3.3558171284        4.4826671237        0.2945863792
 C         -3.6446622364        3.1301140861        0.1159447027
 C         -5.0315297141        2.6487991743        0.0198758153
 C         -5.4058434208        1.4530936439        0.6298508045
 C         -6.7043056589        0.9894118272        0.5330017006
 C         -7.6497585477        1.7104701913       -0.1770849973
 C         -7.2887475838        2.8997600289       -0.7877149048
 C         -5.9911273800        3.3670681232       -0.6891222450
 C         -2.5893399618        2.2313542492        0.0294358519
 N          1.0680020314        2.1135851194        0.0266415401
 C          2.0026966327        1.1697590227       -0.0464113617
 C          3.4037916358        1.5906053294       -0.0649480496
 C          3.7304827027        2.9439662967       -0.1225052034
 C          5.0578147098        3.3266651248       -0.1423543420
 C          6.0610172435        2.3738339746       -0.0993510432
 C          5.7505656810        1.0156394461       -0.0394410150
 C          6.8155195105        0.0016473695        0.0088279221
 C          6.7084562676       -1.1736451320       -0.7308679977
 C          7.7096100075       -2.1259245085       -0.6862509091
 C          8.8297428291       -1.9228509609        0.1023846179
 C          8.9443025761       -0.7596112630        0.8449277407
 C          7.9472623076        0.1968850428        0.7967130664
 C          4.4143363371        0.6354875299       -0.0258031221
 N          1.7455302780       -0.1346788306       -0.1063351268
 C         -1.2304027422       -2.2621213275       -0.0358009727
 C         -4.0178006496       -3.1864196781       -0.5627178434
 C         -5.3515266551       -3.5268805283       -0.4372020661
 H         -6.7601532745       -4.9191615018        0.3791537467
 H         -5.0219887940       -6.3164435534        1.4337608900
 H         -2.6517865924       -5.7071065586        1.2232052759
 H         -0.8988223044       -5.6028383999       -0.3665423090
 H          1.4621319812       -4.9580134652       -0.5587754084
 H          2.1127667890       -2.5665444438       -0.4319969138
 H          0.0275833035        4.3437380956        0.3666587401
 H         -1.8401427977        5.9704147444        0.5258685190
 H         -4.1648017027        5.1932070073        0.3839578952
 H         -4.6776761320        0.8948338048        1.1999050747
 H         -6.9797820314        0.0623946081        1.0149589590
 H         -8.6639205016        1.3470689011       -0.2545926024
 H         -8.0213739725        3.4641526241       -1.3462724528
 H         -5.7119199268        4.2859532510       -1.1841125137
 H         -2.7751017448        1.1807195256       -0.1281066124
 H          2.9359110476        3.6722551054       -0.1545852068
 H          5.3160755750        4.3744052891       -0.1942944836
 H          7.0962409324        2.6813698352       -0.1325404580
 H          5.8437301629       -1.3289615221       -1.3594265781
 H          7.6174769815       -3.0301833353       -1.2703839449
 H          9.6104462230       -2.6683112830        0.1385398158
 H          9.8141056924       -0.5980254637        1.4650852958
 H          8.0338726642        1.0948304598        1.3913433209
 H          4.1391534169       -0.4056490477        0.0384464977
 H         -1.9650205072       -1.4901993890        0.1307449623
 H         -3.7382685717       -2.3159401506       -1.1379602878
 H         -6.1079992805       -2.9109204064       -0.9018441023
  69
       -106.04305354
 C         -5.7064733237       -4.7075642634        0.1080565166
 C         -4.7385517255       -5.4920340616        0.7127106007
 C         -3.4043530775       -5.1396681467        0.6280367675
 C         -3.0155586930       -3.9940100685       -0.0624787641
 C         -1.5981377932       -3.6101436921       -0.1500435717
 C         -0.5989837583       -4.5691551466       -0.3159238257
 C          0.7322790938       -4.1972183860       -0.3958348328
 C          1.0936071525       -2.8658058268       -0.3157710466
 C          0.1072267966       -1.8952132350       -0.1560390364
 C          0.4571321428       -0.4762842134       -0.0884966566
 N         -0.5415215619        0.3992330747       -0.0448540505
 C         -0.1952390106        1.6818823053        0.0032901288
 C         -1.2742131834        2.6682118677        0.0607545641
 C         -0.9923682362        4.0283725810        0.1655711669
 C         -2.0320358542        4.9358782282        0.2369276709
 C         -3.3462005124        4.5014503367        0.2048653143
 C         -3.6455510074        3.1434360778        0.0952264734
 C         -5.0384107144        2.6712621767        0.0626677919
 C         -5.4010643926        1.4948601677        0.7157258080
 C         -6.7082717644        1.0466135674        0.6862664912
 C         -7.6755541598        1.7645035242        0.0031958071
 C         -7.3264296661        2.9337072648       -0.6513766070
 C         -6.0196920148        3.3844047911       -0.6219687293
 C         -2.5959150036        2.2364364713        0.0217894969
 N          1.0625758802        2.1113881930        0.0105930111
 C          1.9991769124        1.1671446960       -0.0302733029
 C          3.4001819027        1.5888337873       -0.0144157033
 C          3.7266333869        2.9435323770       -0.0211538857
 C          5.0536297693        3.3273267611       -0.0062082058
 C          6.0572233606        2.3740746589        0.0146030327
 C          5.7471582430        1.0145918202        0.0242571476
 C          6.8125680648        0.0002578702        0.0530692687
 C          6.6932794025       -1.1273807272        0.8619147403
 C          7.6957967070       -2.0787622850        0.8939633138
 C          8.8294766417       -1.9228423482        0.1139855156
 C          8.9560801199       -0.8075995100       -0.6971314816
 C          7.9577608667        0.1484456351       -0.7255467016
 C          4.4111548712        0.6336440431        0.0098362743
 N          1.7425490363       -0.1371869697       -0.0810360830
 C         -1.2285378262       -2.2733153993       -0.0709636165
 C         -3.9984384948       -3.2113530217       -0.6653872484
 C         -5.3317384636       -3.5661428916       -0.5809351351
 H         -6.7483402476       -4.9844491558        0.1743395186
 H         -5.0252422362       -6.3814485723        1.2550937353
 H         -2.6572325074       -5.7465636207        1.1189831695
 H         -0.8695988277       -5.6115668241       -0.4017770337
 H          1.4920414904       -4.9542685033       -0.5251495512
 H          2.1256032943       -2.5595308299       -0.3796029915
 H          0.0365453212        4.3499298597        0.1944413526
 H         -1.8201817536        5.9918076741        0.3234955799
 H         -4.1492652343        5.2195315079        0.2850907080
 H         -4.6565951285        0.9395790337        1.2669629463
 H         -6.9736761671        0.1339282867        1.2000937568
 H         -8.6970816495        1.4144451355       -0.0191082654
 H         -8.0758382858        3.4958710495       -1.1893959294
 H         -5.7518217788        4.2863585373       -1.1527586872
 H         -2.7881428092        1.1803772185       -0.0839273749
 H          2.9321187801        3.6722945724       -0.0385762802
 H          5.3115703139        4.3764372886       -0.0077206137
 H          7.0919408707        2.6836464653        0.0438104950
 H          5.8172264756       -1.2459108865        1.4827907200
 H          7.5936347372       -2.9452759443        1.5312078371
 H          9.6114106641       -2.6674925603        0.1379851236
 H          9.8362850199       -0.6833964372       -1.3112629040
 H          8.0544706879        1.0081563042       -1.3728477059
 H          4.1367956685       -0.4096348207        0.0000842788
 H         -1.9718704398       -1.5054143952        0.0749685999
 H         -3.7124773945       -2.3304858036       -1.2211922985
 H         -6.0815090464       -2.9499237504       -1.0560486061
  69
       -106.04256502
 C         -1.2464293411       -8.4221597210        0.0214676381
 C         -2.3373422063       -8.0108748826        0.7683711054
 C         -2.7384935964       -6.6880314769        0.7431835218
 C         -2.0505107293       -5.7532312659       -0.0265070041
 C         -2.4719184061       -4.3440205647       -0.0535137597
 C         -3.8231845466       -4.0029204263       -0.1009902201
 C         -4.2164008696       -2.6759799529       -0.1291691112
 C         -3.2726658807       -1.6672444818       -0.1074198291
 C         -1.9184221269       -1.9913600611       -0.0597649594
 C         -0.9057002762       -0.9355893304       -0.0361695018
 N         -1.3190642156        0.3276841036       -0.0101050559
 C         -0.3639221862        1.2528772112        0.0160622036
 C         -0.7704286129        2.6579419764        0.0552825052
 C          0.1894623532        3.6663531256        0.1142409940
 C         -0.2094051088        4.9883874195        0.1551859213
 C         -1.5546074708        5.3142355086        0.1337305573
 C         -2.5276219226        4.3171154645        0.0731879874
 C         -3.9580183798        4.6603063573        0.0495615155
 C         -4.8768943557        3.9145904018        0.7843463291
 C         -6.2210925794        4.2365183846        0.7632633259
 C         -6.6700667618        5.3041428950        0.0040540180
 C         -5.7655307052        6.0502331720       -0.7325976781
 C         -4.4199680664        5.7334247336       -0.7085075443
 C         -2.1212700238        2.9889784309        0.0362379191
 N          0.9371020157        0.9790049560        0.0138511148
 C          1.2611563278       -0.3104004311       -0.0188895531
 C          2.6813861048       -0.6622754688       -0.0247783613
 C          3.0737156785       -1.9992006012       -0.0387885034
 C          4.4180271399       -2.3174098699       -0.0420332021
 C          5.3737387109       -1.3161564534       -0.0339487141
 C          4.9976979749        0.0265247065       -0.0198805352
 C          6.0116443638        1.0923218654       -0.0086181556
 C          7.1558319642        0.9945097175       -0.7965973026
 C          8.1053123347        1.9993875534       -0.7861145761
 C          7.9301347741        3.1146159950        0.0156774176
 C          6.7971751473        3.2208293712        0.8049845971
 C          5.8437269045        2.2199928990        0.7914905551
 C          3.6444209475        0.3411889880       -0.0144667986
 N          0.3733419313       -1.2996202997       -0.0426999950
 C         -1.5268880574       -3.3258075667       -0.0344046269
 C         -0.9523408178       -6.1770381002       -0.7711467027
 C         -0.5561872500       -7.5012027830       -0.7487564568
 H         -0.9351785333       -9.4561434039        0.0400500332
 H         -2.8764387162       -8.7240291019        1.3750949182
 H         -3.5796860725       -6.3700903622        1.3419862715
 H         -4.5681712918       -4.7846425362       -0.1357038610
 H         -5.2674161731       -2.4297529268       -0.1709492137
 H         -3.5619259592       -0.6287013683       -0.1293722136
 H          1.2330276025        3.3952554492        0.1285137835
 H          0.5310662648        5.7733688573        0.2069772836
 H         -1.8571131153        6.3502372349        0.1840324679
 H         -4.5294084072        3.0907105302        1.3904263052
 H         -6.9222223602        3.6532028058        1.3424493336
 H         -7.7208182906        5.5532846570       -0.0141649050
 H         -6.1108351097        6.8811572084       -1.3305673383
 H         -3.7217437491        6.3081661428       -1.2997284559
 H         -2.8467704334        2.1934096471       -0.0291564991
 H          2.3162851993       -2.7665494721       -0.0452411157
 H          4.7268594564       -3.3526654173       -0.0483641239
 H          6.4226071748       -1.5748730508       -0.0185296255
 H          7.2897881528        0.1350148731       -1.4374337799
 H          8.9847295398        1.9136838670       -1.4078880454
 H          8.6731199649        3.8983696709        0.0244300953
 H          6.6571996894        4.0874487533        1.4346482114
 H          4.9691343502        2.2999888479        1.4204429984
 H          3.3187138026        1.3695040575       -0.0211262785
 H         -0.4739323986       -3.5535943035        0.0195772340
 H         -0.4210618825       -5.4657932922       -1.3865885504
 H          0.2932174322       -7.8176094013       -1.3365513126
  69
       -106.04247296
 C         -1.2634176644       -8.4249334344        0.4740945692
 C         -2.2281609338       -8.0926355020       -0.4620397353
 C         -2.6157403741       -6.7753444518       -0.6242283133
 C         -2.0394683778       -5.7675139099        0.1449462041
 C         -2.4511138109       -4.3644887739       -0.0179752037
 C         -3.7938635469       -4.0310466149       -0.1917204552
 C         -4.1818042318       -2.7092442318       -0.3284292055
 C         -3.2406351047       -1.6986848771       -0.2943575454
 C         -1.8940427395       -2.0155264770       -0.1261295135
 C         -0.8870591504       -0.9546038705       -0.0850339211
 N         -1.3091351122        0.3059444844       -0.1051939324
 C         -0.3620950432        1.2384190220       -0.0572161971
 C         -0.7782039201        2.6411069076       -0.0403324466
 C          0.1736420081        3.6539222209        0.0599203942
 C         -0.2329703849        4.9738312690        0.0892256890
 C         -1.5780120154        5.2928039663        0.0181222715
 C         -2.5432622906        4.2912665603       -0.0832715822
 C         -3.9732313023        4.6302018082       -0.1511985258
 C         -4.9135076131        3.8722784927        0.5434652173
 C         -6.2564419059        4.1944871899        0.4876649427
 C         -6.6833037253        5.2751462281       -0.2662872586
 C         -5.7578747008        6.0324633806       -0.9641533939
 C         -4.4134090681        5.7146949153       -0.9059084507
 C         -2.1289859252        2.9652726999       -0.1114254275
 N          0.9397260969        0.9734602136       -0.0141986508
 C          1.2731836101       -0.3139182796        0.0010411208
 C          2.6962570762       -0.6510269530        0.0479482639
 C          3.1043263771       -1.9822899780        0.1033726837
 C          4.4520072447       -2.2827061433        0.1492430713
 C          5.3956788614       -1.2698052060        0.1383992326
 C          5.0037507895        0.0669463794        0.0773849376
 C          6.0034794271        1.1460608813        0.0521045784
 C          5.8375232125        2.2407107844       -0.7934243412
 C          6.7769566734        3.2541375605       -0.8243742814
 C          7.8934047156        3.1942336471       -0.0069851176
 C          8.0658556754        2.1128110134        0.8404251906
 C          7.1306141880        1.0946957350        0.8681538904
 C          3.6472425594        0.3638852722        0.0340885162
 N          0.3930892442       -1.3101236462       -0.0224261841
 C         -1.5076172410       -3.3446433802        0.0093807998
 C         -1.0664359062       -6.1123487430        1.0803107776
 C         -0.6843881053       -7.4306323336        1.2447715369
 H         -0.9641340630       -9.4547120397        0.6025706460
 H         -2.6795176357       -8.8638280667       -1.0692868306
 H         -3.3567592745       -6.5209055646       -1.3681636017
 H         -4.5395537515       -4.8128520667       -0.1982727058
 H         -5.2270228815       -2.4684478694       -0.4577051135
 H         -3.5250860086       -0.6638606940       -0.3985062032
 H          1.2168857095        3.3876002811        0.1185268463
 H          0.5010098999        5.7621338351        0.1730004146
 H         -1.8873991210        6.3269970998        0.0623500792
 H         -4.5837569308        3.0389818770        1.1465502751
 H         -6.9743463584        3.6022618709        1.0364937298
 H         -7.7330038831        5.5256489356       -0.3093244949
 H         -6.0849807244        6.8734697120       -1.5582352827
 H         -3.6990643117        6.2993434526       -1.4674031158
 H         -2.8472902388        2.1660242264       -0.2056780136
 H          2.3564106712       -2.7590766910        0.1079085525
 H          4.7733003133       -3.3134111356        0.1892764709
 H          6.4476858948       -1.5153103213        0.1553006761
 H          4.9761402637        2.2835998030       -1.4439442866
 H          6.6394109137        4.0940711799       -1.4899159737
 H          8.6256244965        3.9879084161       -0.0299114634
 H          8.9323542594        2.0634080508        1.4839212590
 H          7.2623249279        0.2619708433        1.5439620591
 H          3.3094993765        1.3879986618        0.0067075611
 H         -0.4585197675       -3.5688697770        0.1221169217
 H         -0.6240922779       -5.3422972857        1.6953792807
 H          0.0665116621       -7.6844112011        1.9790401724
  69
       -106.04238345
 C         -1.2815547930       -8.3933318778        0.6072109667
 C         -2.1947530732       -8.0824526591       -0.3860958445
 C         -2.5775358948       -6.7702030216       -0.5930113138
 C         -2.0480306067       -5.7461709409        0.1883125499
 C         -2.4510405715       -4.3477856221       -0.0259898976
 C         -3.7821161596       -4.0189636756       -0.2812731753
 C         -4.1605172184       -2.7010050484       -0.4702730180
 C         -3.2216351010       -1.6892452652       -0.4084038358
 C         -1.8869445153       -2.0018345756       -0.1589904418
 C         -0.8806207796       -0.9418438039       -0.0925546561
 N         -1.3015289714        0.3190548978       -0.1329846607
 C         -0.3564733305        1.2513932730       -0.0648320643
 C         -0.7759587984        2.6529227036       -0.0600101116
 C          0.1690741570        3.6720849068        0.0382951407
 C         -0.2470293326        4.9893326569        0.0587032511
 C         -1.5939870091        5.2995288908       -0.0182114078
 C         -2.5522472973        4.2912525074       -0.1172687563
 C         -3.9852138138        4.6153213064       -0.1923832246
 C         -4.9200693786        3.8483847259        0.4993619762
 C         -6.2672226108        4.1507868654        0.4311928322
 C         -6.7031727304        5.2204498980       -0.3324102465
 C         -5.7826416056        5.9881138941       -1.0260120114
 C         -4.4344556924        5.6904495657       -0.9551873168
 C         -2.1283763872        2.9682859575       -0.1379709632
 N          0.9450722096        0.9868408403        0.0080755358
 C          1.2765119094       -0.2999641092        0.0439147353
 C          2.6968994195       -0.6418081088        0.1240393336
 C          3.0946872948       -1.9701931026        0.2602306914
 C          4.4397472665       -2.2768384790        0.3348089347
 C          5.3907544523       -1.2730260105        0.2708849219
 C          5.0089995299        0.0605874149        0.1285253440
 C          6.0179129439        1.1282217087        0.0463941278
 C          5.8701072099        2.1690540158       -0.8672422167
 C          6.8188918435        3.1707435527       -0.9512246593
 C          7.9262134462        3.1526498393       -0.1196968195
 C          8.0806950798        2.1246713775        0.7950204943
 C          7.1364793217        1.1181277955        0.8758560010
 C          3.6552588170        0.3643206117        0.0586592006
 N          0.3960617193       -1.2966169122        0.0110686036
 C         -1.5098543499       -3.3273617052        0.0294859943
 C         -1.1273659771       -6.0697471100        1.1823275208
 C         -0.7499659394       -7.3828896837        1.3911594170
 H         -0.9857181268       -9.4190273346        0.7698839512
 H         -2.6102790144       -8.8663582589       -1.0022727465
 H         -3.2773578977       -6.5323894544       -1.3807722217
 H         -4.5266484513       -4.8013109652       -0.3113757850
 H         -5.1965952465       -2.4631568385       -0.6635237527
 H         -3.5001887146       -0.6575290590       -0.5531738745
 H          1.2139030711        3.4132013499        0.1021536614
 H          0.4812161117        5.7830505806        0.1408297659
 H         -1.9098058199        6.3319823270        0.0204452303
 H         -4.5842021303        3.0224731595        1.1090435515
 H         -6.9804663876        3.5500980838        0.9769092660
 H         -7.7558991191        5.4552551514       -0.3872056984
 H         -6.1177638816        6.8217261887       -1.6258134372
 H         -3.7230206872        6.2829240169       -1.5121170475
 H         -2.8407718979        2.1637443846       -0.2306603734
 H          2.3415685127       -2.7406608501        0.3050114221
 H          4.7525444015       -3.3056344928        0.4389696023
 H          6.4408984728       -1.5238294072        0.3102813861
 H          5.0154921686        2.1786666702       -1.5279418183
 H          6.6953884796        3.9682574281       -1.6694106703
 H          8.6661832553        3.9364904163       -0.1841630940
 H          8.9404543963        2.1085585864        1.4491279821
 H          7.2540321946        0.3270480470        1.6022479519
 H          3.3249227184        1.3871980108       -0.0327747074
 H         -0.4687330803       -3.5475517767        0.2051641112
 H         -0.7233753807       -5.2869895963        1.8076331800
 H         -0.0406053191       -7.6200717889        2.1702118898
