  87
       -133.92505882
 C         10.2156917409       -1.1443246972        0.8257207998
 C          9.2882333747       -0.1701232600        0.0752537519
 C         10.1197755942        0.8848912804       -0.6784539634
 C          8.4734104033       -0.9498314981       -0.9353823563
 C          9.1243908611       -1.6538959314       -1.9394257164
 C          8.4337587793       -2.3488590683       -2.9144918513
 C          7.0489976496       -2.3247716746       -2.9118241955
 C          6.3768586906       -1.6345203969       -1.9278246969
 C          7.0720005289       -0.9633359442       -0.9130633623
 N          6.3687089258       -0.2929791720        0.0725134230
 C          4.9533299777       -0.3430648167        0.0652380752
 C          4.2071194026        0.8030325763       -0.2156703382
 C          2.8348881412        0.7525182750       -0.2292217985
 C          2.1386094329       -0.4422141534        0.0444486522
 C          0.7000650113       -0.4895571491        0.0340215536
 C         -0.0063622865       -1.6916177850       -0.2157569799
 C         -1.3666491663       -1.7274672296       -0.2403903210
 C         -2.1469505631       -0.5561475252       -0.0253307916
 C         -3.5469832301       -0.6932203857       -0.0584021283
 N         -4.1387797587       -1.8935822814        0.0556760510
 C         -5.4423313904       -1.6684949814        0.1554131305
 C         -6.4730504955       -2.6269401213        0.3773196859
 C         -6.1652510459       -3.9781977599        0.5551587609
 C         -7.1624676359       -4.8896654069        0.8191230251
 C         -8.4766531641       -4.4480946504        0.9173929018
 C         -8.7910384133       -3.1163184834        0.7351430667
 C         -7.8064136125       -2.1635323507        0.4472022170
 C         -8.1080168069       -0.7621221445        0.1954310276
 C         -9.4242488717       -0.3010335079        0.1370964667
 C         -9.7332689801        1.0104443717       -0.1595163364
 C         -8.7148279570        1.9173367352       -0.4424646584
 C         -7.4067562829        1.5125598934       -0.3844383054
 C         -7.0617396260        0.1878334505       -0.0398155729
 C         -5.7338839682       -0.2779901487        0.0392277828
 N         -4.5102011718        0.3333949960       -0.0977084504
 C         -4.2355106248        1.6844559331       -0.2984316293
 C         -3.4784493978        2.0838774181       -1.4094833249
 C         -3.1888191551        3.4109092663       -1.6083494678
 C         -3.6383102133        4.3762914338       -0.6928682432
 C         -3.3348920980        5.7315876100       -0.8891634496
 N         -3.0866788069        6.8447972674       -1.0475945691
 C         -4.3900171768        3.9749575334        0.4239547836
 C         -4.6869947784        2.6479865210        0.6151282241
 C         -1.4411011612        0.6386052008        0.2768371383
 C         -0.0775718587        0.6619162544        0.2977332160
 C          2.9127142144       -1.5850226207        0.3297540016
 C          4.2852439557       -1.5385832845        0.3370392586
 C          7.0117805853        0.4293423064        1.0624256803
 C          6.2602896993        1.0352200332        2.0781110964
 C          6.8700720739        1.7744002457        3.0671911999
 C          8.2479451192        1.9151113996        3.0729427330
 C          8.9966567606        1.2855662116        2.0962825690
 C          8.4092584048        0.5327729104        1.0883982662
 H         10.8322160764       -0.6156468313        1.5468582090
 H          9.6219333848       -1.8844499046        1.3588230120
 H         10.8722490557       -1.6644456114        0.1341594445
 H          9.4588799892        1.5667025232       -1.2104547374
 H         10.7270071583        1.4641481374        0.0112335315
 H         10.7804470698        0.4145339489       -1.4010541839
 H         10.2032528369       -1.6606776470       -1.9679994334
 H          8.9715394121       -2.8899551579       -3.6773205429
 H          6.4908723653       -2.8378494744       -3.6799327857
 H          5.2992397893       -1.6022794401       -1.9450437389
 H          4.7236413431        1.7249503521       -0.4412673275
 H          2.2830369266        1.6404809098       -0.4947683020
 H          0.5461407156       -2.5938170484       -0.4304930527
 H         -1.8962969013       -2.6435918237       -0.4470420668
 H         -5.1296697748       -4.2726556450        0.4865020776
 H         -6.9287348630       -5.9345648532        0.9561610462
 H         -9.2648840346       -5.1532484485        1.1374868356
 H         -9.8249232074       -2.8235971447        0.8254739203
 H        -10.2396534032       -0.9833909509        0.3150199057
 H        -10.7647024659        1.3271108193       -0.1913254188
 H         -8.9535840094        2.9353184764       -0.7120527601
 H         -6.6273194473        2.2131343793       -0.6319500204
 H         -3.1334353472        1.3357504845       -2.1071802222
 H         -2.6192068133        3.7242845614       -2.4704075454
 H         -4.7233024428        4.7184206562        1.1325947531
 H         -5.2570503485        2.3320421275        1.4765178385
 H         -1.9822636051        1.5284472378        0.5525209385
 H          0.4190370808        1.5797386039        0.5752005515
 H          2.4211570364       -2.5098079187        0.5872148378
 H          4.8620925780       -2.4219744113        0.5702657200
 H          5.1889642956        0.9134878034        2.0910190468
 H          6.2693452825        2.2357353290        3.8360219510
 H          8.7366586519        2.4965621052        3.8390999061
 H         10.0709609507        1.3842440857        2.1268323078
