  64
       -105.18320278
 O          6.1865239349       -2.0636681806       -0.8632801727
 S          5.7151878666       -1.2522132904        0.2327311257
 O          6.1915236771       -1.6145142237        1.5466849543
 C          5.9349064225        0.4882128819       -0.0860022455
 C          7.1051882067        1.1811837404       -0.2010300416
 C          7.0580014055        2.5514919071       -0.4608224245
 C          5.8150222780        3.1944464212       -0.5903207614
 C          4.6378681894        2.5083590885       -0.4708125407
 C          4.6557139677        1.1122565339       -0.2035933518
 C          3.5668939049        0.2475275303       -0.0234941417
 C          2.1850884513        0.5406664361       -0.0951616915
 C          1.2662633904       -0.4642780167        0.0434568297
 N         -0.1257640881       -0.1972197405       -0.0091144598
 C         -0.7317232155        0.5553708289        0.9787184822
 C          0.0262313608        1.1136200217        2.0186986664
 C         -0.5731267776        1.8751455375        2.9961821389
 C         -1.9440071840        2.0956550869        2.9714661317
 C         -2.7057204271        1.5189341366        1.9738188829
 C         -2.1226451795        0.7458488552        0.9797742354
 C         -3.0121094611        0.0821841509       -0.0331415569
 C         -3.9610255498       -0.8834560137        0.6646185599
 C         -3.6414590121       -2.0033675335        1.3970808880
 C         -4.6765608991       -2.7495095689        1.9471908537
 C         -5.9982322779       -2.3726749280        1.7615160491
 C         -6.3215986807       -1.2448821614        1.0249901440
 C         -5.2946103129       -0.4953535191        0.4729833073
 C         -5.3156455001        0.7138038049       -0.3325687877
 C         -6.3692820283        1.4875765244       -0.7934291553
 C         -6.0847523848        2.6096013861       -1.5546506179
 C         -4.7756501335        2.9567939292       -1.8528930774
 C         -3.7140846005        2.1855911018       -1.3952109971
 C         -3.9942242593        1.0708227198       -0.6387696464
 C         -2.2425053789       -0.6331944496       -1.1061950617
 C         -2.9318073861       -1.2018361864       -2.1670499682
 C         -2.2638983769       -1.8640716364       -3.1802813188
 C         -0.8781123781       -1.9417358478       -3.1500045542
 C         -0.1734610460       -1.3801346669       -2.1088032619
 C         -0.8450436231       -0.7412705758       -1.0541294287
 C          1.6573753766       -1.8188690340        0.2748448966
 C          3.0140133585       -2.1197610812        0.3739141284
 C          3.9364909955       -1.1280543024        0.2193619415
 H          8.0481878230        0.6663593210       -0.0996485225
 H          7.9702329253        3.1156476773       -0.5681641950
 H          5.7974458340        4.2565339828       -0.7888928451
 H          3.6913477759        3.0180237223       -0.5687517132
 H          1.8557251023        1.5539010954       -0.2710539719
 H          1.0887073268        0.9351632924        2.0569694219
 H          0.0304521103        2.2966168534        3.7850348319
 H         -2.4142130317        2.6980971817        3.7326710921
 H         -3.7762697080        1.6599368821        1.9606344734
 H         -2.6122151979       -2.2972621638        1.5440466836
 H         -4.4480698902       -3.6320562087        2.5254013007
 H         -6.7863684148       -2.9680751263        2.1981472624
 H         -7.3521055117       -0.9556566860        0.8837293544
 H         -7.3900969516        1.2216955774       -0.5635701243
 H         -6.8937822714        3.2238283502       -1.9215964507
 H         -4.5779476173        3.8357783738       -2.4477307935
 H         -2.6945804364        2.4560331791       -1.6289481532
 H         -4.0081221690       -1.1188961175       -2.1925500845
 H         -2.8170037456       -2.3023374889       -3.9960531569
 H         -0.3441962123       -2.4332947844       -3.9483920175
 H          0.9036745037       -1.4209478006       -2.1068945893
 H          0.9004834807       -2.5723684606        0.4153841115
 H          3.3369092196       -3.1333646493        0.5548347332
