  74
       -116.07777699
 C         -6.3897513045        2.6700721799        1.5902099832
 C         -5.8317371788        2.0042683250        0.3194927852
 C         -6.5446018659        2.5564822649       -0.9286526126
 C         -6.0870766858        0.5111830499        0.4004460400
 C         -7.3880774488        0.0434572624        0.5273898504
 C         -7.6774338355       -1.3055647139        0.6157127795
 C         -6.6430675548       -2.2236000260        0.5881033260
 C         -5.3413864392       -1.7865618167        0.4612819331
 C         -5.0494959990       -0.4241177279        0.3529060858
 N         -3.7297305310       -0.0177792905        0.2271674514
 C         -2.7143258669       -0.9958362583        0.0840293028
 C         -1.8725798879       -1.2890915980        1.1547891895
 C         -0.8268290031       -2.1768974272        0.9823915325
 C         -0.6390280310       -2.7719478239       -0.2516560458
 S          0.8690639651       -3.7202644280       -0.5165268736
 O          1.0478280016       -4.6683847137        0.5551828097
 O          0.8559602305       -4.2415923071       -1.8614167332
 C          2.1120485320       -2.4308810165       -0.3660813629
 C          3.3313667370       -2.7268689349        0.2317245460
 C          4.2935061153       -1.7496021785        0.3965739137
 C          3.9913626955       -0.4609529137       -0.0302273221
 C          2.7520019092       -0.1673293235       -0.6562521432
 C          1.8086838285       -1.1684335511       -0.8304426802
 C          2.7784463075        1.2295850703       -0.9816596853
 C          1.8603656996        2.0911342021       -1.5699015878
 C          2.2023370215        3.4208394914       -1.7091258876
 C          3.4343647094        3.8955459190       -1.2615716907
 C          4.3627387994        3.0576046970       -0.6746259918
 C          4.0328639261        1.7153840353       -0.5479836543
 N          4.7529608025        0.6809716908        0.0199046705
 C          6.0500655674        0.7843556449        0.5558584730
 C          7.0729801570        1.3415850033       -0.2043761612
 C          8.3456707342        1.4475799642        0.3263275095
 C          8.6075652145        0.9918913858        1.6077621623
 C          7.5901211466        0.4325514259        2.3629139074
 C          6.3117571279        0.3317102059        1.8447430266
 C         -1.4910979258       -2.5207401952       -1.3097497210
 C         -2.5380560370       -1.6320889262       -1.1414613186
 C         -3.3752637473        1.3224712743        0.1594325829
 C         -2.0310170064        1.6812057259        0.0190461076
 C         -1.6515607008        3.0057384852       -0.0463358670
 C         -2.6112729221        3.9994729206        0.0168222088
 C         -3.9426069297        3.6468266086        0.1382766587
 C         -4.3522226169        2.3221957629        0.2102222835
 H         -5.8813166989        2.2758222615        2.4680877736
 H         -6.2416966608        3.7458853726        1.5622205086
 H         -7.4535768792        2.4771503634        1.6947475330
 H         -6.1446517953        2.0824044565       -1.8231498500
 H         -6.4002018488        3.6297529024       -1.0159524650
 H         -7.6117941770        2.3579506341       -0.8839600852
 H         -8.2049099461        0.7484126738        0.5582516275
 H         -8.7005279715       -1.6349632578        0.7117905840
 H         -6.8457278271       -3.2809638503        0.6675007401
 H         -4.5367572190       -2.5059984959        0.4500226321
 H         -2.0314142567       -0.7977253859        2.1029559007
 H         -0.1474476051       -2.4108212533        1.7870777460
 H          3.5000983478       -3.7378143146        0.5666722706
 H          5.2487311361       -1.9833935529        0.8403985926
 H          0.8657335944       -0.9692480634       -1.3137785007
 H          0.9015695012        1.7236662663       -1.9039223817
 H          1.5055441401        4.1083896584       -2.1645800803
 H          3.6672415628        4.9438654136       -1.3731133026
 H          5.3075617953        3.4377909046       -0.3167789102
 H          6.8671229166        1.6760868333       -1.2104989523
 H          9.1368058173        1.8810551248       -0.2669056252
 H          9.6027652951        1.0728438545        2.0174584178
 H          7.7893872540        0.0802479273        3.3638097856
 H          5.5098993081       -0.0834388373        2.4374253206
 H         -1.3046791672       -3.0105908631       -2.2527336698
 H         -3.2102015183       -1.4085071425       -1.9564683656
 H         -1.2743008973        0.9140811169       -0.0391679271
 H         -0.6057005082        3.2556895499       -0.1477277477
 H         -2.3288188127        5.0397533271       -0.0329923711
 H         -4.6819251438        4.4324938268        0.1742201212
