32
 energy: -58.529652941355 gnorm: 0.000035599919 xtb: 6.7.1 (edcfbbe)
N            6.00384786271751        1.98723530018452       -0.00269473132136
C            5.01482314639766        1.40928837433336       -0.00199591742786
C            3.78365576157495        0.71129575093805       -0.00101164061955
C            2.59396508274646        1.40562930704915       -0.00053254312561
C            1.37232280878955        0.71364111083503        0.00031640702907
N            0.21864743916739        1.42958351680375        0.00022202357391
C           -0.87694898090536        0.72829028547832        0.00071135649109
C           -0.87698455122226       -0.72818890608715        0.00150280790515
N            0.21856242692024       -1.42955355335925        0.00179960882781
C            1.37227824923548       -0.71368704981854        0.00107709186042
C            2.59386472146602       -1.40577143355270        0.00072285521307
C            3.78360394034562       -0.71152848846603       -0.00053556113955
C            5.01468917161911       -1.40966648821292       -0.00179687700595
N            6.00359079054229       -1.98782452590978       -0.00311190921904
C           -2.25881102233140       -1.17676118247152        0.00172088014866
C           -2.89017993153455       -2.39597281185682        0.00225447180534
C           -4.29709287357307       -2.41597154434334        0.00218320408113
C           -5.05899199386619       -1.27114197108644        0.00161967193336
C           -4.44125018605158        0.00010067554289        0.00104837744379
C           -5.05896706897227        1.27135453417164        0.00043574707634
C           -4.29703649033832        2.41616321475225       -0.00006674413854
C           -2.89012076452542        2.39613713622461       -0.00003465598048
C           -2.25876714715214        1.17691606688067        0.00053092990043
C           -3.04384509098126        0.00008980819369        0.00110029840109
H            2.57839132430441        2.48485002536890       -0.00095956327053
H            2.57820070479018       -2.48499046849771        0.00125292992898
H           -2.33019485595036       -3.31804486685249        0.00274951699712
H           -4.79347116300376       -3.37555036038069        0.00259036385647
H           -6.13731370652227       -1.33712836508619        0.00156749555032
H           -6.13728742107163        1.33736465637526        0.00042578140601
H           -4.79339477533494        3.37575339629325       -0.00045659524021
H           -2.33013308303720        3.31820769399448       -0.00050293808684
