32
 energy: -58.529652967109 gnorm: 0.000077884236 xtb: 6.7.1 (edcfbbe)
N            6.68005741940153        1.98742804178355       -0.00033448108502
C            5.69105131903146        1.40939462197790       -0.00018406686922
C            4.45988620762856        0.71139048429986       -0.00004815875127
C            3.27018695209116        1.40568959215118       -0.00000966030821
C            2.04856127655815        0.71365777786098        0.00003449770466
N            0.89487158255006        1.42955753978212        0.00005810100317
C           -0.20070851401139        0.72823209177334        0.00005568175919
C           -0.20071627390840       -0.72822907144924        0.00003509442816
N            0.89485642276488       -1.42956572749153        0.00002470147020
C            2.04855328667135       -0.71367748661715        0.00002778191428
C            3.27017102160278       -1.40572247611307        0.00002114449323
C            4.45987779227638       -0.71143610305873       -0.00001167622614
C            5.69102914522367       -1.40945976124192        0.00000753716206
N            6.67999672672702       -1.98750360764333        0.00004125685571
C           -1.58254266550799       -1.17683034272360        0.00001686176260
C           -2.21390833628234       -2.39604497237250       -0.00000615454061
C           -3.62082168378444       -2.41604805326570       -0.00002043063271
C           -4.38273285551832       -1.27122712951501       -0.00001594262233
C           -3.76500246531146        0.00001996697588        0.00001769276521
C           -4.38271952969876        1.27127355365305        0.00002716123668
C           -3.62079639660026        2.41608655417441        0.00004468699858
C           -2.21388321598660        2.39606877093003        0.00005577442918
C           -1.58253031419690        1.17684752135196        0.00005286182958
C           -2.36759435773527        0.00001267142380        0.00003236455792
H            3.25457917498976        2.48491026936807       -0.00002783718254
H            3.25455106769007       -2.48494309339240        0.00003961407879
H           -1.65392166458805       -3.31811594950876       -0.00000339591646
H           -4.11720327723045       -3.37562569854249       -0.00004577072891
H           -5.46105401457476       -1.33723272681192       -0.00005260398493
H           -5.46104003778526        1.33729043809089        0.00001854300265
H           -4.11716795737419        3.37566941579068        0.00006529981991
H           -1.65388683510325        3.31813388836662        0.00008452157832
