32
 energy: -58.481903839648 gnorm: 0.000126224394 xtb: 6.7.1 (edcfbbe)
N            6.02455258662341        2.00778469026912       -0.00531045888025
C            5.04373281197415        1.41382563743877       -0.00302751609909
C            3.82497943481800        0.70209225468578       -0.00064450436007
C            2.61591586930986        1.39863597716624       -0.00035809684610
C            1.39841814286687        0.72898149899773        0.00101718475337
N            0.23016595413222        1.36999042752675        0.00161004757263
C           -0.90936460688677        0.71817608357615        0.00162795823849
C           -0.90938799954911       -0.71820572142949        0.00100703042714
N            0.23013174786185       -1.37003774497082        0.00144930688124
C            1.39839397831423       -0.72905300953465        0.00157598084579
C            2.61588363212124       -1.39873147415642        0.00205964809362
C            3.82496119059916       -0.70221205331686        0.00105164757800
C            5.04372369165108       -1.41393849065006        0.00182942589153
N            6.02463825559533       -2.00776239171136        0.00277938199823
C           -2.28194987114807       -1.17007316942268       -0.00038135655438
C           -2.90925741872290       -2.39283109832540       -0.00224187395297
C           -4.31716621370022       -2.41416205614493       -0.00386107558374
C           -5.08562266222837       -1.27435162993668       -0.00350625895754
C           -4.46994159400807        0.00003879306974       -0.00154952408366
C           -5.08557986589014        1.27445097935138       -0.00097644326712
C           -4.31708942897089        2.41423904536790        0.00076685076115
C           -2.90918111731580        2.39286026200242        0.00180811772634
C           -2.28191876917547        1.17007903164070        0.00120925443290
C           -3.07790673331695        0.00001475730355       -0.00018742790087
H            2.61331532178700        2.47743230507288       -0.00127373063200
H            2.61326034943963       -2.47752778037196        0.00300366057336
H           -2.35223381567708       -3.31696013038296       -0.00256918668069
H           -4.80775972268993       -3.37676422948704       -0.00550480601487
H           -6.16327068313635       -1.34567287087197       -0.00483165097655
H           -6.16322549063294        1.34580849923146       -0.00192796491962
H           -4.80765105665674        3.37685772075045        0.00128881348717
H           -2.35212455016200        3.31696863251905        0.00301042428743
