68
 energy: -116.788379006100 gnorm: 0.000116216592 xtb: 6.7.1 (edcfbbe)
C            1.85627541204705        4.04420995755960        2.43414827555292
C            1.14331436177079        2.84778432223536        2.39919290042996
C            1.62244067527535        1.74402184076692        1.72162901703444
C            2.84561614721747        1.84129350479758        1.06597169632787
C            3.56896102358328        3.05147945672115        1.14397870696052
C            3.08446436649848        4.16370489542703        1.80932723964404
O            4.77890821230583        2.95274095731214        0.53108755782210
C            4.87437829096952        1.67564581490251        0.06948341786887
C            6.00758862346284        1.13968417415576       -0.52921030788165
C            5.99574370217448       -0.20060521075805       -0.86561393238940
C            4.84830254091538       -0.95614962368232       -0.64595796155257
C            4.55117491295499       -2.34392784573899       -0.89078973617423
C            5.28525149228789       -3.40852384041164       -1.39399704779273
C            4.66900975545558       -4.64264275784229       -1.50392700336150
C            3.33943792293206       -4.82067756901998       -1.13106413194331
C            2.58711016804919       -3.77187637802580       -0.63189959308852
C            3.20665458898764       -2.53836186967897       -0.50983735493671
N            2.68191118986060       -1.33948559050084       -0.04925386976390
C            1.31473714056836       -1.14503957661517        0.12850447771147
C            0.65010207691788       -1.68125220288018        1.20557661154789
N           -0.66421053560381       -1.53848978318331        1.39202040246324
C           -1.37398035955838       -0.94892122263058        0.37740628601791
N           -2.75251866260092       -1.03685485835473        0.41610409403774
C           -3.40769760997978       -2.20786861505772        0.79610909111982
C           -2.90663833477378       -3.33255910335516        1.43207360838660
C           -3.78409293219230       -4.36879021095035        1.70123698259705
C           -5.12428080660713       -4.29712738981472        1.33227945323856
C           -5.62590355553762       -3.18064609984029        0.68738663930790
C           -4.76277420676049       -2.12917390267743        0.41529428939206
C           -4.93618810428917       -0.85343830472071       -0.22440741580113
C           -6.05497012306235       -0.28792395070913       -0.82268799361077
C           -5.96250767836092        0.97047622851164       -1.38380951229389
C           -4.75337254066632        1.64366195039698       -1.27205771320463
O           -4.55719551719999        2.91137692515016       -1.72257042165270
C           -3.29611082526841        3.25921986874930       -1.35576261117100
C           -2.69923843042066        4.48413476324816       -1.59124292172220
C           -1.41856059239062        4.66965319460590       -1.10332591826456
C           -0.77423299282775        3.66578297791492       -0.38555105120274
C           -1.37506075692697        2.44537443678270       -0.14965978803893
C           -2.64728500455402        2.21111126426333       -0.66593383846008
C           -3.59619517329470        1.12589164697627       -0.64233527363069
C           -3.67947497034592       -0.19391329413697       -0.17119042678129
C           -0.70475256539975       -0.43880763739011       -0.71682478113515
N            0.62128813993436       -0.46884153475662       -0.84258043239190
C            3.67191455436604       -0.38476417965173       -0.10159974986572
C            3.69507708166390        0.94273280826285        0.33073770472765
H            1.44718945002748        4.88862567593107        2.96729264210950
H            0.19598570715587        2.78324320306361        2.91306189016651
H            1.06727615654906        0.81992046437150        1.71356731189902
H            3.65771498330943        5.07617314585102        1.84553659771824
H            6.87353916339996        1.75946780142971       -0.69441260698955
H            6.86906933047109       -0.66067761101339       -1.29923295602836
H            6.31293306473769       -3.27398210472277       -1.69359331629025
H            5.22506937387393       -5.48397938311137       -1.88917860298935
H            2.88497801134119       -5.79455250333325       -1.23427096286686
H            1.55411045579805       -3.90693479923189       -0.34677898625581
H            1.19649166203440       -2.17901741540037        1.99374849556788
H           -1.86772947514793       -3.38756090705903        1.71591724145617
H           -3.41780579009552       -5.25195545007210        2.20259288071067
H           -5.77878912638419       -5.12700989924676        1.55258038442471
H           -6.66528502657356       -3.12408614076570        0.40368898867040
H           -6.98434529053143       -0.83324684701081       -0.85011374111942
H           -6.79734462378018        1.44307221862995       -1.87421460476304
H           -3.22672157987157        5.25691919388324       -2.12701046833798
H           -0.91715042453890        5.61090930856693       -1.26775399626887
H            0.21484374162860        3.84603384674187        0.00635232203017
H           -0.86319973462129        1.69606352842730        0.42950514810310
H           -1.25608007123790       -0.06324088810409       -1.56565230110070
