68
 energy: -116.788595149917 gnorm: 0.000080569135 xtb: 6.7.1 (edcfbbe)
C            2.03674286078343        3.97010353049280        2.74829607053936
C            1.19782009752010        3.26262369694469        1.89051665015428
C            1.65839089268557        2.18463155970734        1.16161952912498
C            2.98681454360428        1.79446306192472        1.30644471432507
C            3.82972882337818        2.55283184733529        2.14824053972027
C            3.37162064607715        3.63234752541472        2.88151867302911
O            5.11094029635160        2.09954122115388        2.11216693839541
C            5.12532369147104        1.05171168898593        1.24362047119052
C            6.27405453671662        0.36671028809477        0.86904557205990
C            6.15456307435820       -0.63419565092805       -0.07655116078198
C            4.90013154856091       -0.95930021509959       -0.57956566148296
C            4.48873866887019       -1.94148152203891       -1.54714703503532
C            5.17511344042901       -2.85562808133470       -2.33360365980666
C            4.44984464299734       -3.67253147578372       -3.18300447391477
C            3.06214893429672       -3.58436475945686       -3.25524268398058
C            2.35765283753942       -2.68250734202668       -2.47705201215833
C            3.08286805735694       -1.85865218029316       -1.63134651148897
N            2.62735618161386       -0.87123232940048       -0.76537132178116
C            1.29563042949114       -0.78177515319602       -0.37917231811481
C            0.93524950010287       -0.82443716148730        0.94893658579315
N           -0.33738679542880       -0.76113146541148        1.35397309151108
C           -1.29781242104233       -0.77629807917075        0.38632512259005
N           -2.62963200543332       -0.86025426680457        0.77356746884039
C           -3.08643440527878       -1.84015788399458        1.64728871505108
C           -2.36199870850317       -2.66126869367462        2.49634202787535
C           -3.06771902756519       -3.55542630765962        3.28226132952950
C           -4.45592643989095       -3.63890379756135        3.21432198872482
C           -5.18040416328486       -2.82510114839065        2.36128063119344
C           -4.49275114466738       -1.91873284730214        1.56696493886563
C           -4.90298299224122       -0.94211558172766        0.59330436301367
C           -6.15749476154675       -0.61688918217672        0.09056952026977
C           -6.27579281093150        0.37691001449620       -0.86260978182993
C           -5.12564545225788        1.05511543690768       -1.24508808493837
O           -5.10983335300374        2.09546659424027       -2.12252013641029
C           -3.82712549606198        2.54381470077892       -2.16583115709352
C           -3.36696477634611        3.61457083841948       -2.91056974358856
C           -2.03041044079341        3.94835937539915       -2.78433236106919
C           -1.19188490164182        3.24585703946830       -1.92208757131836
C           -1.65457134065205        2.17665625154865       -1.18167039658924
C           -2.98478216718104        1.78998761529890       -1.31937988794528
C           -3.83391472063951        0.78366591924755       -0.73840657248096
C           -3.72121530001619       -0.29122658055497        0.15289053511524
C           -0.93753693186506       -0.83131721638118       -0.94134233255610
N            0.33522721409949       -0.77367424402445       -1.34691894673582
C            3.71958181880794       -0.30129373192936       -0.14662684513467
C            3.83387091752005        0.78028487895943        0.73629497783176
H            1.64306568113131        4.80644838487650        3.30518110681618
H            0.16738891444386        3.56850724175303        1.78842345233131
H            1.00569488559720        1.66277318822108        0.48250571002323
H            4.04074178937107        4.18641562688961        3.52011454674590
H            7.22566355951876        0.63795260920624        1.29545361729418
H            7.02712314755182       -1.16510472368260       -0.42157426916411
H            6.25083169435487       -2.92320652241228       -2.28413232977204
H            4.96577275141127       -4.39101040612883       -3.80213488936830
H            2.52320934914971       -4.23440800664519       -3.92798452525581
H            1.28266354619328       -2.60846545723021       -2.53086646314162
H            1.68710268434090       -0.89346715405113        1.72041933500664
H           -1.28660479175448       -2.59101970472753        2.54679371561807
H           -2.52935675831634       -4.20312663292064        3.95771934064769
H           -4.97286735190775       -4.35130340409451        3.83960091491879
H           -6.25646564413800       -2.88924678788799        2.31476232758178
H           -7.03095924412296       -1.14234700025133        0.44158725385883
H           -7.22735878946136        0.64778576357240       -1.28932712029540
H           -4.03576279679755        4.16506939025189       -3.55257482544737
H           -1.63490832902861        4.77752274614871       -3.35056997589708
H           -0.15998564799703        3.54864801003371       -1.82577185401245
H           -1.00194323847998        1.65879322776532       -0.49946581380355
H           -1.68953239112423       -0.90583014689007       -1.71217848868794
