68
 energy: -116.873851764560 gnorm: 0.000034713185 xtb: 6.7.1 (edcfbbe)
C            2.14040322432844        3.86656601629353        2.90833081557109
C            1.30199325730688        3.25783405040948        1.97854286232760
C            1.73083554950753        2.18817914769813        1.21735563340161
C            3.02391759921605        1.70911152844401        1.40088670007878
C            3.87269800584258        2.37399093606886        2.31115770975729
C            3.44530307353866        3.44148676382390        3.08024059978178
O            5.12868453548276        1.85272742473587        2.29730030539337
C            5.12328108377697        0.85564415482054        1.37017453602327
C            6.24866967579591        0.13779127086375        0.98385129965074
C            6.11240148948299       -0.78386202286384       -0.03313913016284
C            4.85655961131846       -1.01537542027905       -0.59063951650535
C            4.42894949713175       -1.88901940823564       -1.65146404296863
C            5.10369099431862       -2.77594863383177       -2.48046380844609
C            4.37859146374092       -3.48138590609816       -3.42114095857441
C            3.00115648716431       -3.31484727617276       -3.53589225350670
C            2.30932702903257       -2.43758181635578       -2.71931525725240
C            3.03544794614459       -1.72373126027056       -1.78141836384682
N            2.59228165726235       -0.80629671464979       -0.82583512090928
C            1.27617149112742       -0.72650782879189       -0.40542408821775
C            0.93144192221175       -0.72121245034447        0.95313267731642
N           -0.32401285509526       -0.73156193042766        1.34755129242986
C           -1.27860156992628       -0.72026008802315        0.41429015527526
N           -2.59488190749818       -0.79381764955757        0.83530765422369
C           -3.03985714905785       -1.70299916165028        1.79791569596001
C           -2.31505652963169       -2.41160904661619        2.74079237769608
C           -3.00856476861491       -3.28158043940538        3.56372545754413
C           -4.38638424397656       -3.44599035549585        3.45046968822240
C           -5.11019162752143       -2.74576244338642        2.50492353067398
C           -4.43374309514540       -1.86617051638394        1.66952987214709
C           -4.85963306747401       -0.99976792650036        0.60211405704919
C           -6.11508910095160       -0.76998444115832        0.04305266415662
C           -6.24938980670589        0.14302303300041       -0.98196345744917
C           -5.12236142503771        0.85469408824359       -1.37487674326126
O           -5.12537176880315        1.84286578150791       -2.31151460857251
C           -3.86822166725624        2.36118664648167       -2.33009732796593
C           -3.43815768588623        3.42003464475756       -3.10957325700440
C           -2.13249220962936        3.84414688796507       -2.94108952327449
C           -1.29594281569862        3.24312249202441       -2.00463281423230
C           -1.72732665643426        2.18176982048685       -1.23332236224040
C           -3.02119932601898        1.70340014579702       -1.41306100418388
C           -3.83877650531540        0.67950379848226       -0.81152860090547
C           -3.70274316817825       -0.33406595710161        0.13936442194668
C           -0.93386090180892       -0.72636289338635       -0.94426377509934
N            0.32156194503542       -0.74280406230338       -1.33858578389413
C            3.70107437267968       -0.34341711212338       -0.13345884378907
C            3.83924161116789        0.67802850244695        0.80864882702586
H            1.77168298372747        4.69669956168662        3.49088163175705
H            0.29866094673084        3.63395019973646        1.84573768559275
H            1.08083188596632        1.75018405264553        0.47697116819480
H            4.11672171826427        3.92287919921137        3.77296187826685
H            7.19809088760469        0.33125740166668        1.45531128846451
H            6.96977577184363       -1.32720097919844       -0.39623400279088
H            6.17071812288490       -2.90701505153534       -2.38824006096212
H            4.88398588091491       -4.17255169103570       -4.07894240117924
H            2.45905568393823       -3.87910614945734       -4.27993021364404
H            1.24386685234727       -2.30303697208183       -2.81359117144521
H            1.67834731462385       -0.74197750456730        1.73380098760177
H           -1.24927865043617       -2.27868994204542        2.83380799521710
H           -2.46750397849356       -3.84165681061052        4.31167033069343
H           -4.89306559692477       -4.13149464579270        4.11318433431064
H           -6.17750091153841       -2.87527010609079        2.41374845236927
H           -6.97364989631728       -1.30810195631611        0.41107974216134
H           -7.19845019555339        0.33451046283749       -1.45497427722989
H           -4.10816098347024        3.89586093912754       -3.80749729660014
H           -1.76177539609727        4.66775003496533       -3.53159564298212
H           -0.29200272295895        3.61865016778103       -1.87477754183257
H           -1.07864105303979        1.74979028654585       -0.48825363442068
H           -1.68081297672757       -0.75147870024077       -1.72475146415520
