  53
        -89.16674180
 C         -2.2023442494       -4.8628731693        0.3034052752
 C         -3.5774845282       -4.7490394650        0.1052577333
 C         -4.1920110938       -3.5126145861       -0.0283433959
 C         -3.3835362359       -2.3985260741        0.0414255874
 C         -1.9742772050       -2.4999778461        0.2455295922
 C         -1.3840216830       -3.7538910383        0.3756655642
 N         -1.3928883774       -1.2600628394        0.2919710082
 C         -2.3933949976       -0.4265578496        0.1198300529
 N         -2.5515516041        0.9258971726        0.0633041294
 C         -1.5347904020        1.8689252672        0.1860884263
 C         -0.2214097509        1.4783792430        0.0958502191
 C          0.8278448301        2.4312654006        0.1935236355
 C          2.1946113793        2.0615100886        0.1041341091
 C          3.2338401349        3.0447082979        0.0044601526
 C          4.5599331393        2.7256107369       -0.1033082562
 C          4.9100428901        1.3739950648       -0.1156092216
 O          6.1584823768        0.8450109189       -0.2199683266
 C          6.0061391511       -0.5068851510       -0.1898589946
 C          7.0151847188       -1.4499787305       -0.2741513489
 C          6.6426522577       -2.7846139789       -0.2298195712
 C          5.3111876824       -3.1628318782       -0.1053966793
 C          4.3017624682       -2.2162149649       -0.0197375632
 C          4.6507171791       -0.8770369106       -0.0619688559
 C          3.9171320077        0.3655917137       -0.0119938314
 C          2.5898227209        0.6886257741        0.1024147262
 C          0.3823809377        3.7892383936        0.3779511545
 C         -0.9522027782        4.0666284803        0.4613145353
 N         -1.9204504595        3.1518364355        0.3775392606
 C         -3.9061740416        1.1655456227       -0.1426147641
 C         -4.6020159671        2.3537609306       -0.2877001249
 C         -5.9713669841        2.2777366742       -0.4751467315
 C         -6.6343161617        1.0539024412       -0.5294100160
 C         -5.9517893110       -0.1433470124       -0.3935378102
 C         -4.5844011799       -0.0782158876       -0.2026162880
 N         -3.6199605309       -1.0435700061       -0.0369925980
 H         -1.7697808507       -5.8470733330        0.4032891887
 H         -4.1795059527       -5.6435106099        0.0558918548
 H         -5.2572301138       -3.4304018836       -0.1781549805
 H         -0.3208119638       -3.8407174493        0.5293575472
 H         -0.0253736621        0.4402509210       -0.1102841986
 H          2.9627977461        4.0870114810       -0.0056427272
 H          5.3187258977        3.4881956868       -0.1822429989
 H          8.0466282482       -1.1516380123       -0.3717557834
 H          7.4057392822       -3.5454873113       -0.2942613349
 H          5.0608959036       -4.2125541204       -0.0751134119
 H          3.2680895746       -2.5100706185        0.0769610247
 H          1.8589462119       -0.0948871068        0.2045344996
 H          1.0876505101        4.5920588900        0.5054910598
 H         -1.3008648337        5.0758044583        0.6378446989
 H         -4.0766498476        3.2934203692       -0.2474607401
 H         -6.5381584268        3.1886106072       -0.5892845656
 H         -7.7019447195        1.0367234328       -0.6857279156
 H         -6.4644877357       -1.0908475892       -0.4369551946
