34
 energy: -52.339434673216 gnorm: 0.000049384280 xtb: 6.7.1 (edcfbbe)
C            3.81321169055560       -2.24717658421248        0.25831041813468
C            2.53152288489050       -2.59215837997127        0.66052531146135
C            1.50163586087031       -1.65607056517545        0.58712105804246
C            1.72609954212717       -0.37243475526697        0.10982862183150
C            3.06812616570804        0.02583601964762       -0.18529419225052
C            4.08337203128664       -0.95655015157983       -0.14510753570601
C            3.38278237007870        1.37109487678358       -0.43233126779110
C            2.41175815990011        2.38456098120027       -0.33998754475372
C            1.11512455112538        2.01248811241794       -0.10766318991639
N           -0.00127714628387        2.80678518295734       -0.00164769147544
C           -1.11692562876442        2.01149383739549        0.10486257701350
C           -2.41394816981952        2.38250980411046        0.33670914457281
C           -3.38403198284869        1.36820299672404        0.42959765312549
C           -3.06805920181580        0.02305694704925        0.18361666838799
C           -4.08238219695480       -0.96030009430952        0.14393042178222
C           -3.81090831787049       -2.25100616091479       -0.25834343421934
C           -2.52877787880058       -2.59513696403986       -0.65988156320043
C           -1.49979322824185       -1.65802313299347       -0.58699864642560
C           -1.72559039137177       -0.37418128251654       -0.11088480269523
C           -0.69664833007198        0.63129690914427        0.00848614256593
C            0.69617592178708        0.63196045996651       -0.01021403252350
H            4.60524857599016       -2.98205612991817        0.28452527796950
H            2.32345866135585       -3.58676965452465        1.02597578750979
H            0.51787959573113       -1.92934941660405        0.93528587027595
H            5.08915194818836       -0.67096773014520       -0.41890586349054
H            4.40850094050644        1.63914036555211       -0.63555554408512
H            2.68872300125577        3.42144464889680       -0.45313299745404
H           -0.00176662153312        3.81209877544620       -0.00209993240006
H           -2.69191422460941        3.41921467961442        0.44903845090222
H           -4.41004363843204        1.63543114359424        0.63241863147297
H           -5.08850854323136       -0.67542959155793        0.41720342357992
H           -4.60225475560276       -2.98664232339080       -0.28418207563791
H           -2.31967553170329       -3.58987260095394       -1.02440237994455
H           -0.51568408406567       -1.93068188773078       -0.93465260218012
