34
 energy: -52.339434608203 gnorm: 0.000032023730 xtb: 6.7.1 (edcfbbe)
C            3.81254200142091       -2.25279976830645        0.26078934509210
C            2.53055048507832       -2.59730254288020        0.66246354219924
C            1.50084691369101       -1.66108356923325        0.58795123171828
C            1.72593519953421       -0.37758163790380        0.11058820511510
C            3.06821906500007        0.02019812190263       -0.18408934164713
C            4.08316959353338       -0.96248136562441       -0.14326961996434
C            3.38356082869114        1.36529984437301       -0.43111197111932
C            2.41297293477041        2.37917916450180       -0.33884522912414
C            1.11614871700499        2.00759658773864       -0.10679333231928
N            0.00018947504151        2.80249785710449       -0.00062566928016
C           -1.11587538553547        2.00779016986987        0.10589655266288
C           -2.41260881937314        2.37960678055233        0.33805016933383
C           -3.38331748512828        1.36587797307023        0.43076775651277
C           -3.06820630379560        0.02067714592527        0.18400863365920
C           -4.08330693528007       -0.96185740328699        0.14349684524661
C           -3.81292625501240       -2.25227382362279       -0.26042072381633
C           -2.53103455716767       -2.59704722811628       -0.66216926711719
C           -1.50116809905440       -1.66098463457910       -0.58789082723450
C           -1.72601773952180       -0.37736193392929       -0.11075117822492
C           -0.69637753004634        0.62738003667281        0.00911751258784
C            0.69645107882963        0.62727645871547       -0.00962530544401
H            4.60442715229221       -2.98781248887788        0.28792149063944
H            2.32218053253268       -3.59165483669619        1.02845572053330
H            0.51674856433316       -1.93410141965974        0.93537163868608
H            5.08908865871629       -0.67727955264887       -0.41693301172070
H            4.40946483226161        1.63283747636812       -0.63405395712712
H            2.69030444006328        3.41599584620821       -0.45171653759638
H            0.00027156021733        3.80780835525651       -0.00071942800377
H           -2.68979427636330        3.41649015368219        0.45066784769301
H           -4.40914297951536        1.63361560186450        0.63384280303369
H           -5.08914301152287       -0.67647637808245        0.41727909720621
H           -4.60490956653563       -2.98719303904927       -0.28724290222512
H           -2.32285230718086       -3.59149976784280       -1.02799580034778
H           -0.51715963411466       -1.93419520844714       -0.93541480955319
