34
 energy: -52.427075104856 gnorm: 0.000036580447 xtb: 6.7.1 (edcfbbe)
C            3.85242305953373       -2.21993679598834        0.23984687303138
C            2.55474079529231       -2.59192273369110        0.60721796698402
C            1.52578381222526       -1.68902570662184        0.53344534507431
C            1.74036538115174       -0.37339873108694        0.08316579493178
C            3.08005810359408        0.03617419200133       -0.17004635464382
C            4.10903935438719       -0.92389372115049       -0.11894109791497
C            3.38818588567693        1.40180488517077       -0.40331711759880
C            2.43047959360686        2.36824189636547       -0.32138198521201
C            1.10433761565090        1.96339862349966       -0.11748848156906
N           -0.00127366981729        2.75632163735008       -0.00079911631592
C           -1.10616038704033        1.96242644227057        0.11618548614940
C           -2.43286402726057        2.36624968854900        0.31840497074684
C           -3.38988085419689        1.39906814168448        0.39952627798804
C           -3.08026009974647        0.03353408239148        0.16767141298457
C           -4.10845046086942       -0.92732164220217        0.11540606914405
C           -3.85020253246630       -2.22353126630902       -0.24160215343755
C           -2.55146350980047       -2.59502197429528       -0.60570578325895
C           -1.52334567971400       -1.69124977350326       -0.53100838393842
C           -1.73981085064151       -0.37517606539061       -0.08294848271927
C           -0.71748800418901        0.61083871868064        0.03178210828904
C            0.71699995261295        0.61152539916783       -0.03160036693168
H            4.65120527781017       -2.94671656878192        0.27787037656876
H            2.36753664172022       -3.59514439784899        0.96301832038961
H            0.54289076034844       -1.97251197995325        0.87414921913599
H            5.11869836783390       -0.61016794415501       -0.34620272605954
H            4.41744503913609        1.66748357387839       -0.59667760713574
H            2.67081702823611        3.41652247737178       -0.42197489369605
H           -0.00184031928435        3.76292141602369       -0.00170110996432
H           -2.67422412431996        3.41439125394368        0.41801262503649
H           -4.41966704550628        1.66402339399203        0.59107578082941
H           -5.11879614457110       -0.61409174434725        0.34028884736849
H           -4.64840962527906       -2.95088820719422       -0.28065036234764
H           -2.36273772622265       -3.59859392870382       -0.95971363808657
H           -0.53952625698663       -1.97452424073779       -0.86916538137325
