48
 energy: -81.181034450903 gnorm: 0.000069697826 xtb: 6.7.1 (edcfbbe)
C            8.46439414812854        0.84600514568963        1.07831504541798
C            8.38314229185830       -0.07164379741236        0.03494666007807
C            7.15965732744483       -0.47767525924048       -0.44295551205734
C            5.97766428507823        0.03540054711123        0.12426522790754
C            4.71874355978062       -0.38693281913195       -0.36778163883933
N            4.49758240989513       -1.24464118635242       -1.35625516748648
N            3.21948957799561       -1.37355851531607       -1.52313352601094
C            2.59619536331119       -0.58584652248605       -0.62395976569899
C            1.22641970403978       -0.42323482039133       -0.46529683293382
C            0.31644503872820       -1.13928933518323       -1.30375173077814
C           -1.02663406466566       -1.00265317487661       -1.14360744619367
C           -1.54899772201112       -0.12540089632082       -0.16450123248027
N           -2.93608351336401        0.02408419416737       -0.01395918307990
C           -3.74240147783421       -1.07315645312889        0.26452010848118
C           -3.21550251445094       -2.34864612847810        0.47463465937773
C           -4.04713520487325       -3.41923912141229        0.74173786464813
C           -5.41910700280593       -3.24288200319090        0.82196304827223
C           -5.95785433991216       -1.97762199235134        0.66344118428743
C           -5.13114060979061       -0.89802003134863        0.39698950252295
O           -5.72240687321349        0.32812192398224        0.29998018041840
C           -4.92037211172472        1.40170518185088        0.04290819410202
C           -5.53566729839988        2.63878608521114       -0.06151300129677
C           -4.78819743346803        3.76317061413141       -0.36728307915606
C           -3.42741699872036        3.64043142932304       -0.59767652859612
C           -2.80542135975791        2.41109453785608       -0.49364664027627
C           -3.53206321941797        1.27315024537969       -0.13874534075691
C           -0.66076215246835        0.60044751239893        0.66003238036487
C            0.68509361268981        0.44985239927954        0.52837779842916
O            3.53223796945245        0.07957072647971        0.14462131752969
C            6.06863184636626        0.96324681378401        1.17816654727246
C            7.30191212730456        1.35770243761906        1.64368376703624
H            9.42872606332092        1.16075459820026        1.44812116673005
H            9.28908275460658       -0.46632701660671       -0.40151814783272
H            7.07438800373042       -1.18696039486621       -1.25075021806160
H            0.73298474896381       -1.77570780015052       -2.06699028491075
H           -1.71499303392964       -1.52598923363586       -1.79172484241546
H           -2.14792480380942       -2.49167956671726        0.43847562457169
H           -3.61630559599308       -4.39611455164111        0.89532806361179
H           -6.06748193801437       -4.07991264151608        1.02575962696513
H           -7.01753911710780       -1.79974960399100        0.75055272307038
H           -6.60127428409347        2.69353093191780        0.09219512131395
H           -5.27169159492365        4.72385706568411       -0.44381350730140
H           -2.84343413291100        4.50594571984367       -0.86866167028881
H           -1.75144360438027        2.32099527879555       -0.69997171130845
H           -1.07016483511161        1.24255442471064        1.42716884823989
H            1.36714033836436        0.97413623108991        1.17896563783945
H            5.16073326109317        1.35540663777249        1.61106183088891
H            7.36785859848014        2.06998632873871        2.45362908401303
