  42
  -74.7758165347000        1.00000000000000      !
 C          0.6723018040       -5.9528653143        0.0173927661
 C          2.0344688138       -5.6345070858        0.0095456453
 C          2.4499049888       -4.3248528899       -0.0015710789
 C          1.5050567621       -3.2884843443       -0.0048546580
 N          1.8856793746       -2.0045589217       -0.0121051660
 C          0.9786308792       -1.0529188017       -0.0130670880
 C         -0.4109857634       -1.3777324260       -0.0086782683
 N         -0.8025282182       -2.6325821670       -0.0014361431
 C          0.1076213047       -3.6150750197        0.0016698562
 C         -0.2804299377       -4.9627455095        0.0128157412
 C         -1.4015486017       -0.3207866274       -0.0092417900
 N         -2.6791021827       -0.6307913914       -0.0030512620
 C         -3.6006600522        0.3410329139        0.0001023420
 C         -4.9704708091        0.0406057024        0.0139054996
 C         -5.8970307239        1.0551613388        0.0187046187
 C         -5.4916928057        2.3941596015        0.0078284731
 C         -4.1580394158        2.7242758378       -0.0062031952
 C         -3.1848405571        1.7144244369       -0.0085793407
 N         -1.8788586576        2.0116236533       -0.0153064135
 C         -0.9879781295        1.0449717180       -0.0133372568
 C          0.4227896282        1.3745438616       -0.0113069958
 N          0.7933828862        2.6356549130       -0.0030710507
 C          2.0958236665        2.9477749147        0.0025268668
 C          2.5210706946        4.2841492432        0.0158824653
 C          3.8631882764        4.5789091764        0.0224163770
 C          4.8196333199        3.5578894930        0.0137998006
 C          4.4380940269        2.2379519281       -0.0001401595
 C          3.0768699054        1.9005296627       -0.0048361445
 N          2.6810999291        0.6212388462       -0.0120217979
 C          1.3984113202        0.3331251615       -0.0135344410
 H          0.3700395448       -6.9895389185        0.0246407784
 H          2.7645733071       -6.4298294997        0.0119385902
 H          3.4955136500       -4.0600399308       -0.0058945044
 H         -1.3354831058       -5.1882888337        0.0168289871
 H         -5.2634477606       -0.9972597868        0.0198898226
 H         -6.9504086139        0.8204838310        0.0268020935
 H         -6.2380931488        3.1742048425        0.0082273715
 H         -3.8264278997        3.7505750375       -0.0147420689
 H          1.7692869121        5.0571635094        0.0228134599
 H          4.1873409140        5.6088023190        0.0355734328
 H          5.8684517141        3.8140068502        0.0180480827
 H          5.1609494535        1.4371096447       -0.0025317405
