  42
  -75.0214956700000        1.00000000000000      !
 C          0.6723018537       -5.9528653087        0.0173927661
 C          2.0344688609       -5.6345070688        0.0095456453
 C          2.4499050249       -4.3248528694       -0.0015710789
 C          1.5050567896       -3.2884843317       -0.0048546580
 N          1.8856793913       -2.0045589059       -0.0121051660
 C          0.9786308880       -1.0529187935       -0.0130670880
 C         -0.4109857519       -1.3777324294       -0.0086782683
 N         -0.8025281962       -2.6325821737       -0.0014361431
 C          0.1076213349       -3.6150750188        0.0016698562
 C         -0.2804298962       -4.9627455118        0.0128157412
 C         -1.4015485990       -0.3207866391       -0.0092417900
 N         -2.6791021774       -0.6307914138       -0.0030512620
 C         -3.6006600551        0.3410328838        0.0001023420
 C         -4.9704708094        0.0406056609        0.0139054996
 C         -5.8970307327        1.0551612895        0.0187046187
 C         -5.4916928257        2.3941595556        0.0078284731
 C         -4.1580394386        2.7242758031       -0.0062031952
 C         -3.1848405714        1.7144244103       -0.0085793407
 N         -1.8788586744        2.0116236376       -0.0153064135
 C         -0.9879781382        1.0449717097       -0.0133372568
 C          0.4227896167        1.3745438651       -0.0113069958
 N          0.7933828642        2.6356549196       -0.0030710507
 C          2.0958236419        2.9477749322        0.0025268668
 C          2.5210706588        4.2841492643        0.0158824653
 C          3.8631882381        4.5789092087        0.0224163770
 C          4.8196332902        3.5578895333        0.0137998006
 C          4.4380940082        2.2379519652       -0.0001401595
 C          3.0768698895        1.9005296884       -0.0048361445
 N          2.6810999239        0.6212388686       -0.0120217979
 C          1.3984113174        0.3331251732       -0.0135344410
 H          0.3700396032       -6.9895389154        0.0246407784
 H          2.7645733608       -6.4298294766        0.0119385902
 H          3.4955136839       -4.0600399016       -0.0058945044
 H         -1.3354830625       -5.1882888449        0.0168289871
 H         -5.2634477523       -0.9972598308        0.0198898226
 H         -6.9504086208        0.8204837729        0.0268020935
 H         -6.2380931753        3.1742047904        0.0082273715
 H         -3.8264279310        3.7505750055       -0.0147420689
 H          1.7692868698        5.0571635242        0.0228134599
 H          4.1873408671        5.6088023540        0.0355734328
 H          5.8684516822        3.8140068992        0.0180480827
 H          5.1609494415        1.4371096878       -0.0025317405
