99
 energy: -164.736820348149 gnorm: 0.000057304187 xtb: 6.7.1 (edcfbbe)
C            7.69725553165278       -0.93947576709790        1.00208983457961
C            6.42257189637615       -0.41131080980388        1.03799802678857
C            5.32077191840942       -1.22556024919309        0.82307707121134
C            5.47523050965265       -2.58171451863872        0.56254672320218
C            6.77203450101710       -3.11289809337685        0.55986952465686
C            7.86828404936415       -2.29698112999048        0.76971956791625
O            7.02028437649353       -4.45271058946893        0.36762454796828
C            5.93390212335592       -5.27609238330282        0.17761451171737
C            6.19438647446915       -6.62029344177280       -0.01284708823045
C            5.15414949109136       -7.51003656148074       -0.24112594267184
C            3.85739299319002       -7.04005437076945       -0.29301344942427
C            3.59107649745794       -5.69257943825458       -0.10112954690165
C            4.61838102947381       -4.79313985619647        0.15717400162431
N            4.38546704769974       -3.42958890169004        0.35032614251874
C            3.07079469810242       -2.91422111714029        0.34239338343708
C            2.15632119030873       -3.30141625515127        1.31856464068523
C            0.87700981537837       -2.78444901145884        1.31042603240986
C            0.49222440427037       -1.85554496683939        0.34438376396858
C           -0.87309514543909       -1.32110447828895        0.36173891669557
N           -1.83173391256396       -2.16821776987703        0.66221601721694
C           -3.10985029372176       -1.76140443336914        0.57166787774167
C           -4.16324231906980       -2.63811168749960        0.90250008673075
C           -5.45738183561660       -2.24260568901744        0.72417556969893
C           -5.76235227598291       -0.95942943764992        0.21245526770738
N           -7.11270265430640       -0.60490536037192        0.02512870201369
C           -7.98792670845977       -0.57754364156093        1.11582660400133
C           -7.55128319714288       -0.77352507446061        2.42085934200510
C           -8.44402863271253       -0.74401197504648        3.48152314914553
C           -9.78477066378470       -0.50131011393881        3.25922316574091
C          -10.23063558733862       -0.26381425566778        1.96723862320361
C           -9.34389657576965       -0.29418452949454        0.90638551625893
O           -9.85450915068674       -0.01880500811453       -0.33968330599528
C           -8.97363844764019       -0.00425723508694       -1.39541241340972
C           -9.49945371526672        0.29806298318674       -2.63846145899975
C           -8.68672021674536        0.29749389508071       -3.76223558038195
C           -7.35042049429313       -0.02344101603216       -3.63210782318803
C           -6.81845586193223       -0.32333894038039       -2.38714596662917
C           -7.61130140032098       -0.29801763091747       -1.24616254585306
C           -4.75332386899612       -0.07778191753994       -0.09913767794901
C           -3.41384808577160       -0.45902228442515        0.08627470231163
N           -2.42275391904212        0.42785754142552       -0.13273015763114
C           -1.17969198088820        0.04384813067901        0.04323873112991
C           -0.14989273953276        1.08290791647548       -0.06508190989379
C           -0.26655257010050        2.06861331431673       -1.04397332847590
C            0.69033785326091        3.05576629003141       -1.16509274153629
C            1.77322010281529        3.08837792337351       -0.29040364456620
N            2.76072682243094        4.09052942938632       -0.41049102784283
C            4.07708163925449        3.74917898452886       -0.73056684318977
C            4.45379351519708        2.44457589886117       -1.02578812594325
C            5.76712564735592        2.13823260231559       -1.34919720053167
C            6.72497814563507        3.13127597439366       -1.38924113972962
C            6.36051339015340        4.44371623456663       -1.12340118742299
C            5.05103054853819        4.75387779421246       -0.80611029088251
O            4.76030745347257        6.08078423272235       -0.58672766145614
C            3.45473547523960        6.40173860867547       -0.29220805135535
C            3.17391993629155        7.73821833804506       -0.07765376125039
C            1.88716741224132        8.13966958259933        0.25228449722347
C            0.89214414110931        7.19170901564983        0.38040323022534
C            1.16884374196744        5.84985503114242        0.16502149412619
C            2.44572276513460        5.43401452693599       -0.19231277110863
C            1.87523898082187        2.12644882499265        0.71205094036108
C            0.92517599293448        1.13225669614920        0.82213948390518
C            1.40458544846580       -1.48856564002042       -0.64476087311418
C            2.67979354450216       -2.01524598541156       -0.64715655793245
H            8.55846617322658       -0.31029725625889        1.16251229924988
H            6.27225455180381        0.63952717501964        1.23109399196758
H            4.32967072709409       -0.80333866354052        0.86275532655271
H            8.84914689267103       -2.74585353605573        0.75295763936454
H            7.22100339219396       -6.95058150375044        0.01584083623353
H            5.36760499698572       -8.55735906302460       -0.38597116414519
H            3.03880690704523       -7.71598451030163       -0.48746998289176
H            2.57483804291269       -5.33603326309715       -0.16001217364447
H            2.45682804078630       -4.00464233631141        2.08104902344827
H            0.16200266452367       -3.07956798529656        2.06285439462585
H           -3.91695770385219       -3.62090404823879        1.27306859734729
H           -6.27199843033060       -2.91304432473139        0.95495520945922
H           -6.50337318072686       -0.94414689517746        2.61168692120142
H           -8.07710185080123       -0.90762740756711        4.48307285845659
H          -10.48462116165731       -0.48099399988975        4.07958960007303
H          -11.26715854703327       -0.04876617557568        1.76007686400178
H          -10.55218634743058        0.52360827185167       -2.70496379758451
H           -9.10539991874609        0.53648746402898       -4.72696932478124
H           -6.70743979534156       -0.04807065340500       -4.49851131897129
H           -5.77617627153242       -0.58786843162596       -2.30561637185255
H           -4.96517911433896        0.91355538157474       -0.46931118320891
H           -1.10895673679528        2.03690207269011       -1.71767176670644
H            0.60719781400698        3.80464491379781       -1.93861909965242
H            3.71246862503267        1.66203033734099       -1.00577814524962
H            6.03236448252360        1.11519194177005       -1.56653354936860
H            7.74942965859158        2.89841149334116       -1.63334878026745
H            7.07992215101054        5.24664779627696       -1.16328519662098
H            3.97930538885829        8.45011707462705       -0.16925375070964
H            1.67769416422740        9.18515154815369        0.41519495707300
H           -0.11007939255516        7.48522780155303        0.65278163229113
H            0.38521494747922        5.11849482067079        0.28456613334509
H            2.70156200577353        2.16902326581058        1.40591557360627
H            1.00222564831856        0.40499929682946        1.61648717513820
H            1.10599548319447       -0.80861614985624       -1.42851289519418
H            3.38210784132970       -1.73862265565569       -1.41943314922611
