  153
       -224.28060471
 C         13.1272413710       -2.4558668438       -3.2831379409
 C         12.8496577865       -2.3226860233       -1.7791465564
 C         13.3811366571       -3.5601116333       -1.0418241402
 C         13.6087482796       -1.0977582840       -1.2610522883
 C         11.3487886510       -2.2237781852       -1.5573989189
 C         10.5231600749       -3.2675901942       -1.9833954780
 C          9.1570871286       -3.2002977532       -1.8091710060
 C          8.5792985869       -2.0960951911       -1.1878882290
 C          9.3719453683       -1.0327209920       -0.7082579347
 C         10.7513268097       -1.1387530025       -0.9398682463
 B          8.6439906512        0.1295519372        0.0049275590
 C          9.1392077383        1.3891881180        0.7517182056
 C         10.4697830860        1.7106503161        1.0579744902
 C         10.8534292316        2.8718270478        1.7060912679
 C         12.3047298146        3.2011414143        2.0173549666
 C         12.4670485341        3.3598662710        3.5356892946
 C         12.6807776739        4.5136541068        1.3153858552
 C         13.2749066036        2.1141895778        1.5456976428
 C          9.8513041288        3.7706467953        2.0810421496
 C          8.5246260233        3.4894324570        1.8321948662
 C          8.1632051603        2.3099539071        1.1861197785
 O          6.8151983998        2.1421701393        1.0312628950
 C          6.2976060179        1.0155721572        0.4874859559
 C          4.9121072577        0.9079413595        0.4656405417
 C          4.3282681556       -0.2304192056       -0.0821321425
 N          2.9093093582       -0.3493917557       -0.0970989244
 C          2.1940432401        0.3028288574       -1.0809727564
 C          2.8656687550        1.0078772697       -2.0875259462
 C          2.1638351657        1.6625816887       -3.0762453159
 C          0.7776239952        1.6291764222       -3.0897897806
 C          0.1076359900        0.9272945572       -2.1050610025
 C          0.7951961863        0.2618247660       -1.1025086350
 C         -0.0000990425       -0.4804140952       -0.0491004199
 C          0.8959911153       -1.2342643823        0.9092175919
 C          0.3041467347       -2.0272066248        1.8796043731
 C          1.0653745102       -2.7095380008        2.8102382482
 C          2.4461925168       -2.5862177572        2.7791258174
 C          3.0537792105       -1.8026506650        1.8220923440
 C          2.2906424505       -1.1225732507        0.8648010065
 C         -0.7815462226        0.5388852152        0.7536443762
 C         -0.0793936733        1.4733063355        1.4985137368
 C         -0.7348452841        2.4249698937        2.2571694443
 C         -2.1212420614        2.4369634378        2.2806667510
 C         -2.8372693712        1.5172297182        1.5458511493
 C         -2.1808794660        0.5602576400        0.7614724064
 N         -2.9105591737       -0.3516141403        0.0249700723
 C         -4.3302304716       -0.2470033442        0.0158224026
 C         -5.0944377589       -1.1150136504        0.7907073727
 C         -6.4792883338       -0.9990842649        0.7714618885
 C         -7.1274272123       -0.0182178943        0.0019022110
 C         -6.3213123765        0.8423731683       -0.7620230918
 C         -4.9361914651        0.7318185303       -0.7668959292
 O         -6.8611865231        1.8156064422       -1.5331922088
 C         -8.2039606373        2.0735290765       -1.5262288516
 C         -8.5845727245        3.1650241782       -2.3026374936
 C         -9.9060561059        3.5548304222       -2.3579664093
 C        -10.8822382921        2.8749008773       -1.6246819657
 C        -12.3259600163        3.3472951451       -1.6876850764
 C        -12.8107109957        3.2829560120       -3.1429694979
 C        -12.4003350719        4.7940171947       -1.1793386799
 C        -13.2678679461        2.4927303837       -0.8346328010
 C        -10.4807387954        1.7883693062       -0.8672354869
 C         -9.1570805932        1.3293159016       -0.8006248038
 B         -8.6454735083        0.1100940572       -0.0010467136
 C         -9.3571092938       -1.0040316952        0.7985737138
 C        -10.7395387289       -1.2314931804        0.8633063949
 C        -11.3210286014       -2.2327872249        1.6213811387
 C        -12.8242384737       -2.4525026573        1.6820829671
 C        -13.2935002897       -2.3114429270        3.1369970516
 C        -13.6060167534       -1.4472816363        0.8314760764
 C        -13.1430622559       -3.8637415105        1.1686075074
 C        -10.4754847314       -3.0680486301        2.3564130610
 C         -9.1068258297       -2.9082622122        2.3031747755
 C         -8.5450987931       -1.8978270792        1.5269826195
 O         -7.1779611320       -1.8699460159        1.5376845407
 C         -2.3032597741       -1.3529995898       -0.7061701441
 C         -3.0779637832       -2.2697303629       -1.4279178684
 C         -2.4814174296       -3.2795771592       -2.1514342535
 C         -1.1002238488       -3.3998061937       -2.1793946659
 C         -0.3278956010       -2.4872246377       -1.4853339851
 C         -0.9085443868       -1.4646150955       -0.7518637698
 C          5.1139105452       -1.2513095998       -0.6094306629
 C          6.4976400648       -1.1252230851       -0.5802074680
 C          7.1254471510        0.0056377408       -0.0310549469
 O          7.2158737675       -2.1478146695       -1.1008855257
 H         12.7365067667       -1.5906032289       -3.8145848198
 H         12.6614019543       -3.3467981469       -3.6942365320
 H         14.1985877788       -2.5174727675       -3.4627593308
 H         12.9208765969       -4.4705187671       -1.4148068971
 H         13.1689136806       -3.4822206380        0.0224935807
 H         14.4578375831       -3.6427434284       -1.1748150056
 H         14.6726396836       -1.2239965092       -1.4516710437
 H         13.2821180214       -0.1929609558       -1.7680315624
 H         13.4724070111       -0.9780348897       -0.1890866557
 H         10.9408035472       -4.1384281525       -2.4641542234
 H          8.5134794744       -3.9959737291       -2.1528286016
 H         11.3620143481       -0.3148235713       -0.6224202463
 H         11.2194670585        0.9955063518        0.7767514941
 H         12.1819689688        2.4397267474        4.0414562283
 H         11.8460272933        4.1648640860        3.9179125245
 H         13.5033915629        3.5827171018        3.7809464719
 H         12.0617540802        5.3374683237        1.6588126986
 H         12.5500905322        4.4143923691        0.2398429166
 H         13.7209351865        4.7617725526        1.5160664532
 H         13.0652163884        1.1653481024        2.0336329125
 H         13.2211382486        1.9834032901        0.4677623361
 H         14.2931294049        2.4036356814        1.7978804140
 H         10.0991428492        4.6934369206        2.5820142379
 H          7.7455354832        4.1713691953        2.1378598394
 H          4.3021182522        1.7001055385        0.8701009985
 H          3.9436501004        1.0315159624       -2.0863589574
 H          2.7012479266        2.2011010015       -3.8418618315
 H          0.2257479816        2.1432796462       -3.8610048397
 H         -0.9716455591        0.8909105751       -2.1091144374
 H         -0.7730254803       -2.1043329699        1.9015389412
 H          0.5879110334       -3.3247538721        3.5566914940
 H          3.0537454170       -3.1029400957        3.5063753898
 H          4.1275434789       -1.7069359442        1.8080440762
 H          0.9999869578        1.4491884569        1.4809933291
 H         -0.1718116422        3.1466150008        2.8280822991
 H         -2.6478074886        3.1667991370        2.8765171242
 H         -3.9149330388        1.5276285975        1.5753869225
 H         -4.6229484936       -1.8713883364        1.3980035052
 H         -4.3419323602        1.4038539443       -1.3656028763
 H         -7.8240585175        3.7004921883       -2.8506733520
 H        -10.1693433349        4.4039093043       -2.9692718388
 H        -12.2158389275        3.9240123567       -3.7871092302
 H        -13.8483888042        3.6037573144       -3.2071678318
 H        -12.7399447844        2.2636868287       -3.5170535779
 H        -12.0407214614        4.8499368749       -0.1539675033
 H        -11.7951810370        5.4588997191       -1.7889811631
 H        -13.4286947081        5.1484794357       -1.2052334055
 H        -14.2821685115        2.8776338434       -0.9194523317
 H        -12.9831377140        2.5260518884        0.2142741898
 H        -13.2720922338        1.4595099522       -1.1730073860
 H        -11.2075848572        1.2612792512       -0.2783449378
 H        -11.3650001449       -0.5893762926        0.2722801310
 H        -13.0498019370       -1.3207508013        3.5150866125
 H        -12.8185784092       -3.0473029678        3.7793815074
 H        -14.3709302438       -2.4499014440        3.1987238449
 H        -14.6712572092       -1.6532213839        0.9152658607
 H        -13.4334287385       -0.4295489583        1.1728139152
 H        -13.3308499652       -1.5258507318       -0.2175549100
 H        -12.6596278675       -4.6235730999        1.7759334837
 H        -14.2166681980       -4.0387450863        1.1932435579
 H        -12.7975028002       -3.9762173230        0.1430813878
 H        -10.8799766347       -3.8595355450        2.9678896844
 H         -8.4494560912       -3.5642905457        2.8535593557
 H         -4.1521851877       -2.1787786299       -1.4171023286
 H         -3.0980437557       -3.9767786809       -2.6979416998
 H         -0.6313642552       -4.1916136844       -2.7422942111
 H          0.7495092491       -2.5610044436       -1.5103395892
 H          4.6596807209       -2.1325977786       -1.0339188634
