54
 energy: -81.259282481063 gnorm: 0.000037359907 xtb: 6.7.1 (edcfbbe)
C            5.41059832787712       -1.18563466261093       -0.22339681173032
C            4.87772188785404       -0.39670607235935        0.78939986886185
C            3.59412877505034        0.09501172993061        0.69134540140597
C            2.80593097168717       -0.20193686259910       -0.42877540620327
N            1.50263714683589        0.28042827128040       -0.53381626296952
C            0.54735335813201       -0.46610243882563       -1.23501338115338
C            0.47217365370180       -1.85366103802592       -1.08893311764987
C           -0.48685729497437       -2.56910989609480       -1.77435808700759
C           -1.38456537200772       -1.91941082365845       -2.61384937663591
C           -1.30940566492336       -0.54306129416907       -2.76615224240708
C           -0.35309360500070        0.18430153846481       -2.08901777464084
C            1.16394081465461        1.52093549230266       -0.02262415390014
C            2.07165163819392        2.59024303257543       -0.09752560110935
C            1.70967888428056        3.86619312110471        0.23983039617072
C            0.38863846875248        4.13300934785050        0.68956696572353
C           -0.52024279567164        3.11343093428449        0.78214460858083
C           -0.17814627013427        1.78915211469554        0.47085658197661
N           -1.08897526579090        0.77939430764378        0.70351927585590
C           -2.42005828469736        0.79234077844623        0.29578562231588
C           -3.10377801037555        1.74285778351295       -0.43360531110783
C           -4.43199470737934        1.48356302301653       -0.77200896961796
C           -5.04752319192235        0.29485618571151       -0.38744661829114
C           -4.36062037925554       -0.67752957694648        0.31568142880431
C           -3.02614290856666       -0.44465526017129        0.65798793161319
C           -2.03118882940913       -1.21799731096963        1.31348946072732
C           -2.02465885010275       -2.47940515305239        1.91597194011222
C           -0.87646243380305       -2.90957601100857        2.54751623124751
C            0.26622449589729       -2.10544611281797        2.61009855403135
C            0.28939266621121       -0.85520278610919        2.00439030872870
C           -0.84135859916414       -0.42968797383279        1.33360501668269
C            3.35449247913133       -0.98850405908436       -1.45188814314262
C            4.64020562999255       -1.47357660685123       -1.34249315830173
H            6.41661088545279       -1.56716644425831       -0.14191572685090
H            5.46838453348586       -0.17047458069516        1.66472201599006
H            3.18551388520738        0.70179281594606        1.48600089178939
H            1.15460676136744       -2.35388858034046       -0.41851703036931
H           -0.54322032859021       -3.63973590303652       -1.64760576127489
H           -2.13669057909710       -2.48301592400142       -3.14378524196948
H           -1.99753113328284       -0.03383102640669       -3.42437929136214
H           -0.27915927040653        1.25416786165948       -2.22033334170712
H            3.06411990299832        2.39470469228865       -0.47706799727204
H            2.41663756182008        4.67543104591756        0.14976556406048
H            0.11506164841502        5.13587798015574        0.97725869776325
H           -1.50973655219709        3.30420311880660        1.17080172253637
H           -2.63318481001268        2.66093700751424       -0.75120120594162
H           -4.98550015191480        2.21492007066620       -1.34103249041248
H           -6.08105978763213        0.12725452081186       -0.65673675658977
H           -4.83868402502613       -1.60606375511731        0.58966301994280
H           -2.90965350409914       -3.09762082873986        1.89111879573665
H           -0.85792307435032       -3.88220858558909        3.01905436436180
H            1.13948313942674       -2.45604533275007        3.13901042277530
H            1.16732826819323       -0.23318696217322        2.07758825210809
H            2.76593088865087       -1.19677546823296       -2.33272514349919
H            5.05144471603021       -2.07423997034462       -2.14026783343167
