54
 energy: -81.371153513730 gnorm: 0.000021121519 xtb: 6.7.1 (edcfbbe)
C            5.36810711013032       -1.16225147669734       -0.22728486309698
C            4.83880589043595       -0.34114460611650        0.75478929276848
C            3.54911406719040        0.14158771901310        0.64536853708679
C            2.76132959809411       -0.18820620038503       -0.45853982897198
N            1.45227989295191        0.29077379477496       -0.57055744891097
C            0.48486041947905       -0.45055927235912       -1.26850445229695
C            0.39179945117683       -1.83120730880107       -1.10158348893254
C           -0.57149576686251       -2.54819518053437       -1.78311758712154
C           -1.45607422568823       -1.90422713743605       -2.63357325734497
C           -1.36563536313634       -0.53351631340326       -2.80432548380578
C           -0.40023630823346        0.19134233761849       -2.13180828188566
C            1.11771189416456        1.55689511822816       -0.07737967238423
C            2.00427908710691        2.62497609093899       -0.22338452708636
C            1.68532308027809        3.88717636940232        0.23582507442492
C            0.46353787315394        4.11664105462964        0.84896257973171
C           -0.42604453822199        3.07041264093775        1.00709887675792
C           -0.11396197343616        1.79191009163664        0.55973891644805
N           -1.04947272458181        0.75829551635695        0.75037517596260
C           -2.33502348826102        0.74346892578411        0.25000519257490
C           -2.99759550163377        1.69875373613580       -0.50678877174670
C           -4.29398874581297        1.42561813307485       -0.89858491412858
C           -4.92113426948151        0.23006979308391       -0.55306189282279
C           -4.26267170337728       -0.72807497187554        0.19178999252159
C           -2.95869524002732       -0.47634313094562        0.59820925290122
C           -1.99496291955113       -1.22460293874598        1.35502088728140
C           -2.01763540095978       -2.46684854269108        1.97526758615132
C           -0.89224050794459       -2.88883825756273        2.65547185349819
C            0.24091735646291       -2.08197759252084        2.73703173988531
C            0.28567905975005       -0.84087095397132        2.13177443871802
C           -0.83181835825923       -0.42398172948977        1.42436413774498
C            3.30642258177217       -1.00340590954227       -1.45128289205791
C            4.59468704756627       -1.48736337450732       -1.32983232917236
H            6.37480070733305       -1.54140238068109       -0.13615979635265
H            5.43202955058703       -0.07809581284122        1.61865484953620
H            3.14957285680018        0.78335986454369        1.41734086026191
H            1.07045246497451       -2.33133667470116       -0.42660660069911
H           -0.63901158280241       -3.61654483372155       -1.63893938584754
H           -2.21274997138406       -2.46746613066713       -3.15845663800831
H           -2.04852301492745       -0.02339474705582       -3.46753560438364
H           -0.32655718532545        1.26062678733064       -2.27097078158789
H            2.94803007739665        2.45031026061951       -0.71897820581746
H            2.38779961881613        4.69621172071188        0.10399946528757
H            0.20750709870727        5.10174253220494        1.20733827830522
H           -1.37523360533600        3.22695451418328        1.49859744821575
H           -2.51528457303220        2.62382895507256       -0.78565717438065
H           -4.83286430129195        2.15363842131834       -1.48770045425796
H           -5.93651149863412        0.05388738325630       -0.87722516993438
H           -4.74699776107500       -1.65731541028942        0.45281547752727
H           -2.90057945699758       -3.08671627151269        1.92603105043206
H           -0.88876240750625       -3.85390828869233        3.14108367331466
H            1.10214871672413       -2.43236122260013        3.28769161333706
H            1.16176896299059       -0.21688148488685        2.21231703588129
H            2.71506396727125       -1.25126875997135       -2.32049959972663
H            5.00023059833206       -2.11660656124346       -2.10891751536967
