54
 energy: -81.371129720621 gnorm: 0.000032181938 xtb: 6.7.1 (edcfbbe)
C            5.36733017188793        0.85949642058028       -0.28136740479440
C            4.60350579060875        1.13115517325355       -1.40488488886904
C            3.29287014661006        0.70134992195044       -1.48329562299348
C            2.71649905293393       -0.00422711651933       -0.42641603346065
N            1.38537966864730       -0.42834912981701       -0.49722646827043
C            0.44953466892700        0.30833760499511       -1.24160860934581
C           -0.47024498855928       -0.34735335045942       -2.05687001816767
C           -1.40500739562440        0.37582391382996       -2.77310718841778
C           -1.43017789067420        1.75760997709748       -2.69413771322250
C           -0.51017775027388        2.41457723796392       -1.89257218137131
C            0.42341685320442        1.70001675342750       -1.16858179148988
C            0.99796660575802       -1.64083962990332        0.08325443182496
C            1.83935502808639       -2.75253563322106        0.01494657932753
C            1.46893762565233       -3.96486163535033        0.56147313017822
C            0.23872037582500       -4.10030458998646        1.18559406014665
C           -0.60641486042078       -3.00948192127741        1.26794141614960
C           -0.24190024810617       -1.77948531270985        0.73286482086484
N           -1.13425080898699       -0.69764037480231        0.84884821499682
C           -0.86827996319752        0.51920899612817        1.43870626105035
C            0.26542736367523        0.93903737147044        2.11803981444571
C            0.27111174276919        2.21992607299050        2.63574135478136
C           -0.82843693304549        3.06431533666282        2.49535757054347
C           -1.96995975182192        2.64192966330213        1.84287529155293
C           -1.99823910397598        1.35930632703686        1.31146062004809
C           -2.99230321147721        0.59942426690533        0.60740472771961
C           -4.28610765201811        0.87384925821902        0.18352316976426
C           -4.98390616111608       -0.10740162736663       -0.49226304896887
C           -4.40568993044792       -1.34828715100186       -0.75294263832546
C           -3.12028569739377       -1.64462128480236       -0.34219584274635
C           -2.41868573986842       -0.66587193276305        0.34639657405177
C            3.49402411546646       -0.28022259567612        0.69922295573702
C            4.80548009053979        0.14858036101286        0.76646830728227
H            6.39170550631689        1.19545252022885       -0.22384284986305
H            5.03378347107877        1.67518320207951       -2.23324739328245
H            2.70779739499492        0.90665478778935       -2.36773693248647
H           -0.44815432085009       -1.42584484369009       -2.12398441300222
H           -2.11574703544945       -0.14481165655564       -3.39778739965547
H           -2.16373611656046        2.31951090731730       -3.25221129455003
H           -0.52667587700147        3.49214109091812       -1.81995865039434
H            1.13035001147680        2.21140638314410       -0.53218754179365
H            2.78916735093456       -2.65242656894751       -0.48965504774769
H            2.13744962475109       -4.80937441383157        0.48863188713095
H           -0.05794808710780       -5.04634040494741        1.61140942290281
H           -1.56116126704114       -3.09167875808679        1.76663339996815
H            1.11584294484477        0.28748417485906        2.24343479077260
H            1.14602455346171        2.57269590188323        3.16277086573893
H           -0.78580265084834        4.05987426204732        2.91273995662265
H           -2.82691952504046        3.29222654225660        1.74796010830111
H           -4.73263839588687        1.83759380214801        0.37844890898300
H           -5.99221746795473        0.08592438151988       -0.82848326763108
H           -4.97453010471686       -2.09390142165012       -1.28955631857898
H           -2.67581533181929       -2.60553650635815       -0.55495910625113
H            3.06888489500566       -0.83781965606997        1.52124438795163
H            5.39084921382165       -0.07087509723369        1.64768463683806
