  69
  -107.510765878400       0.270594562859182      !
 C          8.8985379134       -3.3952114295        0.2560177514
 C          8.9533730002       -2.1719553602        0.9046243049
 C          7.8902846388       -1.2924566252        0.8256297296
 C          6.7577036853       -1.6292914639        0.0871873053
 C          5.6117563550       -0.7339891419        0.0040960638
 N          4.3418791415       -1.2300893878       -0.0028660934
 C          3.5528567721       -0.1907123239       -0.0136470254
 C          2.1074485084       -0.2276923648       -0.0118545791
 C          1.4393527486       -1.4557981368       -0.0027988577
 C          0.0611174026       -1.4537588631        0.0087324758
 C         -0.6284906591       -0.2375836689        0.0068071853
 C         -2.0894970233       -0.1760656816        0.0143526435
 C         -2.7627391843        0.8208613706        0.7219006933
 C         -4.1389362013        0.8815351646        0.7292368950
 C         -4.8946613070       -0.0494754406        0.0132592602
 N         -6.2870615495        0.0150172462        0.0107151004
 C         -6.9349176678        1.2570431110        0.0393281008
 C         -6.4195225493        2.3406498073       -0.6710211381
 C         -7.0640184793        3.5619749062       -0.6403577151
 C         -8.2314238368        3.7214055614        0.0880476216
 C         -8.7497965914        2.6465904784        0.7916313547
 C         -8.1082929395        1.4233958051        0.7738542248
 C         -7.0465886876       -1.1615009500       -0.0282576022
 C         -6.6385935065       -2.2906209392        0.6809653804
 C         -7.3905169383       -3.4485651479        0.6370616949
 C         -8.5605885247       -3.4981500428       -0.1028675299
 C         -8.9732415345       -2.3770699372       -0.8041825253
 C         -8.2236113421       -1.2172511906       -0.7738526118
 C         -4.2256137090       -1.0460745864       -0.7004797722
 C         -2.8495356339       -1.1092459255       -0.6919464325
 C          0.1486096163        0.9257248706       -0.0104706228
 N          1.4623096444        0.9380475858       -0.0171673257
 O          4.2165328766        0.9750506377       -0.0226304686
 C          5.5320285333        0.6497420717       -0.0218917561
 C          6.5072422901        1.7203953593       -0.0969377061
 C          7.7641903740        1.5219078982       -0.6693234825
 C          8.6658830658        2.5661262303       -0.7373948604
 C          8.3286816449        3.8176794377       -0.2463270246
 C          7.0751437987        4.0260238633        0.3054504039
 C          6.1669309526        2.9879636911        0.3780944069
 C          6.6994065466       -2.8698264223       -0.5432487745
 C          7.7668501007       -3.7438103690       -0.4626057379
 H          9.7331557155       -4.0780317487        0.3183886824
 H          9.8278118061       -1.9041997976        1.4798215827
 H          7.9282318249       -0.3467616621        1.3461984792
 H          2.0149465812       -2.3666938806        0.0041700603
 H         -0.4856493032       -2.3852932166        0.0398288860
 H         -2.1989635564        1.5371812199        1.3007428588
 H         -4.6434023032        1.6490282941        1.2976362181
 H         -5.5155267375        2.2154891819       -1.2489316333
 H         -6.6557167578        4.3928324647       -1.1967372332
 H         -8.7340515008        4.6763865900        0.1066670607
 H         -9.6573200164        2.7628944842        1.3656465054
 H         -8.5094900527        0.5887160449        1.3299485602
 H         -5.7322026643       -2.2506548582        1.2672972984
 H         -7.0647636677       -4.3155638769        1.1927667876
 H         -9.1470889998       -4.4038280646       -0.1322509698
 H         -9.8816167504       -2.4081603138       -1.3876995174
 H         -8.5421307432       -0.3470075174       -1.3288308761
 H         -4.7965405476       -1.7651033743       -1.2694363231
 H         -2.3530205170       -1.8730239587       -1.2721621473
 H         -0.3204713654        1.9008177552       -0.0393743760
 H          8.0222803959        0.5538875359       -1.0707831015
 H          9.6365572807        2.4048067779       -1.1827966726
 H          9.0386468269        4.6295819529       -0.3006909138
 H          6.8045802233        5.0021806636        0.6803325622
 H          5.1877273736        3.1443812521        0.8049600521
 H          5.8090323463       -3.1314908942       -1.0938461102
 H          7.7170636807       -4.7011237766       -0.9608063870
  69
  -107.510649311600       0.239193114515300      !
 C          8.9194011750       -3.3724922434        0.1096932068
 C          8.9444888992       -2.2398103827       -0.6881178782
 C          7.8753600237       -1.3640825885       -0.6897630652
 C          6.7667214026       -1.6127389558        0.1168274573
 C          5.6147013424       -0.7214208425        0.1192173083
 N          4.3505062392       -1.2221368959        0.2194672092
 C          3.5513526416       -0.1954386640        0.1221846211
 C          2.1062647910       -0.2426877859        0.1488828256
 C          1.4471793228       -1.4732765214        0.2262845155
 C          0.0686252017       -1.4809538756        0.2313149205
 C         -0.6283978042       -0.2713647437        0.1643218371
 C         -2.0897722995       -0.2167057278        0.1426887427
 C         -2.7816124998        0.7887486588        0.8187297610
 C         -4.1571091524        0.8530747510        0.7807916997
 C         -4.8922975220       -0.0772500245        0.0422723862
 N         -6.2818131802        0.0054111639       -0.0217226195
 C         -6.9142068145        1.2563730711       -0.0064287576
 C         -6.3551050126        2.3421020180       -0.6795013909
 C         -6.9824864950        3.5724683916       -0.6565497411
 C         -8.1768950086        3.7386584943        0.0252137843
 C         -8.7403265008        2.6610931500        0.6886866855
 C         -8.1157655325        1.4289582290        0.6794212737
 C         -7.0576557560       -1.1570630552       -0.1216905710
 C         -6.7081212857       -2.3058945448        0.5870683970
 C         -7.4759250115       -3.4492808989        0.4801972895
 C         -8.6047147234       -3.4645565588       -0.3225677916
 C         -8.9602147878       -2.3234536647       -1.0229193203
 C         -8.1938518014       -1.1780335370       -0.9298174436
 C         -4.2036393195       -1.0865528341       -0.6343255191
 C         -2.8290568385       -1.1577360280       -0.5743578649
 C          0.1396251422        0.8958664385        0.0960358383
 N          1.4532019496        0.9169846037        0.0857158952
 O          4.2030767901        0.9674620465       -0.0297850788
 C          5.5212807001        0.6540264835       -0.0250389329
 C          6.4886699810        1.7302957589       -0.1179751688
 C          6.1253262328        2.9231572570       -0.7449493590
 C          7.0291055323        3.9632207543       -0.8404669101
 C          8.3011307087        3.8320619461       -0.3078562106
 C          8.6612762925        2.6577736327        0.3344063830
 C          7.7642171982        1.6123334076        0.4351042039
 C          6.7379040740       -2.7646455403        0.8991379082
 C          7.8113424057       -3.6351598067        0.8982012621
 H          9.7588184261       -4.0522707280        0.1098924763
 H          9.8003220187       -2.0404750024       -1.3165840585
 H          7.8898048902       -0.4908980324       -1.3254599516
 H          2.0293222102       -2.3786126354        0.2774286074
 H         -0.4731114234       -2.4133007317        0.3033078264
 H         -2.2335828883        1.5094273133        1.4073672576
 H         -4.6765877726        1.6264315474        1.3271755553
 H         -5.4299662866        2.2121141010       -1.2218409659
 H         -6.5393511897        4.4051143782       -1.1827238237
 H         -8.6655074316        4.7009877797        0.0384644911
 H         -9.6698048218        2.7821428352        1.2253104110
 H         -8.5521960420        0.5920508024        1.2047841521
 H         -5.8349601280       -2.2927600849        1.2229480957
 H         -7.1952503485       -4.3321545784        1.0355076985
 H         -9.2034821845       -4.3591472469       -0.4013411444
 H         -9.8362843840       -2.3272629074       -1.6545940245
 H         -8.4668783389       -0.2924354976       -1.4848245820
 H         -4.7566708745       -1.8081650571       -1.2173821385
 H         -2.3154935520       -1.9323261452       -1.1247846658
 H         -0.3378643766        1.8646583910        0.0229316997
 H          5.1320951843        3.0198905785       -1.1568005646
 H          6.7407627390        4.8804723679       -1.3325699063
 H          9.0081393104        4.6445453691       -0.3866499155
 H          9.6470122366        2.5582777842        0.7645183718
 H          8.0408760141        0.7066764231        0.9528255392
 H          5.8655138790       -2.9609080714        1.5031306952
 H          7.7844945690       -4.5228519249        1.5133180865
  69
  -107.510484501600       0.200912631491164      !
 C          8.8643792587       -3.1431809792       -1.4134429950
 C          7.7365849772       -3.0807291804       -2.2152514178
 C          6.6781994521       -2.2651148642       -1.8621273655
 C          6.7420112542       -1.4923726156       -0.7050943620
 C          5.6058411726       -0.6559143332       -0.3437026945
 N          4.3314771719       -1.0639986655       -0.6036099317
 C          3.5528272968       -0.1466199295       -0.0988650010
 C          2.1072630698       -0.1644645835       -0.1248827409
 C          1.4362857880       -1.1950201815       -0.7901565069
 C          0.0583517777       -1.1822015930       -0.8013341793
 C         -0.6296045766       -0.1545746950       -0.1487568050
 C         -2.0912897689       -0.1011312112       -0.1187389508
 C         -2.8469470270       -1.2716249440       -0.0394127090
 C         -4.2232868801       -1.2298110362       -0.0009606083
 C         -4.8978963181       -0.0077948847       -0.0403518577
 N         -6.2904632269        0.0365629612        0.0036456231
 C         -6.9914190786        1.0199232289       -0.7065921343
 C         -8.1380930960        1.5978449841       -0.1627882713
 C         -8.8342313247        2.5595815228       -0.8689934783
 C         -8.3975533277        2.9656694011       -2.1193329013
 C         -7.2570251291        2.3969798866       -2.6623840296
 C         -6.5587002069        1.4283660141       -1.9677155310
 C         -7.0005105725       -0.9110492917        0.7535496517
 C         -6.5193750100       -1.3391750283        1.9902612935
 C         -7.2214196854       -2.2765539135        2.7226941091
 C         -8.4133132001       -2.7936763655        2.2421173559
 C         -8.8989921825       -2.3660004822        1.0174157976
 C         -8.2000668633       -1.4350647818        0.2736701328
 C         -4.1467376157        1.1667226525       -0.1220989059
 C         -2.7702171016        1.1173093434       -0.1599832846
 C          0.1503993962        0.8167762083        0.4882469916
 N          1.4643784737        0.8200082090        0.5015587319
 O          4.2280452770        0.8594485928        0.4775796777
 C          5.5400189744        0.5590223772        0.3203841141
 C          6.5311631999        1.5129867221        0.7792118782
 C          6.2146470359        2.3838197042        1.8228477804
 C          7.1416914504        3.3085287670        2.2631531872
 C          8.3900073528        3.3824270514        1.6668991666
 C          8.7036153056        2.5332125612        0.6171145269
 C          7.7831590524        1.6056822591        0.1697442623
 C          7.8702812862       -1.5750998831        0.1085031626
 C          8.9242263474       -2.3946424789       -0.2487798735
 H          9.6921961364       -3.7794914484       -1.6902738291
 H          7.6822613307       -3.6719419587       -3.1178338857
 H          5.7906500894       -2.2123386442       -2.4735901851
 H          2.0096914252       -1.9645330940       -1.2801546593
 H         -0.4889063176       -1.9494776594       -1.3298613307
 H         -2.3483289284       -2.2282391946        0.0103832757
 H         -4.7898062930       -2.1475364563        0.0573935935
 H         -8.4754373014        1.2885330730        0.8156692853
 H         -9.7193624775        3.0012796830       -0.4353643676
 H         -8.9411583124        3.7210652907       -2.6659345574
 H         -6.9119902625        2.7037401987       -3.6388686529
 H         -5.6770003813        0.9771997518       -2.3989076227
 H         -5.5955187201       -0.9292041831        2.3716576590
 H         -6.8385007239       -2.5992667297        3.6795826204
 H         -8.9599984439       -3.5245407410        2.8183375148
 H         -9.8254042387       -2.7666816360        0.6331271843
 H         -8.5753713103       -1.1098695831       -0.6856457348
 H         -4.6536668349        2.1199813241       -0.1512569969
 H         -2.2113784300        2.0378831613       -0.2383240931
 H         -0.3157929205        1.6265527937        1.0346340715
 H          5.2393109573        2.3230431828        2.2817680918
 H          6.8901870052        3.9749017708        3.0752468022
 H          9.1146923019        4.1039817002        2.0139883873
 H          9.6704096648        2.5985530090        0.1399543450
 H          8.0226048686        0.9590172124       -0.6605632607
 H          7.9123522075       -1.0051569142        1.0251492543
 H          9.7959081658       -2.4531000053        0.3868073818
  69
  -107.510345726200       0.173472438690137      !
 C          8.8961693476       -3.3521100958        0.5790849335
 C          7.7571451084       -3.5110363138        1.3510993953
 C          6.6903377441       -2.6456088504        1.2000312132
 C          6.7567166833       -1.6018485723        0.2801125581
 C          5.6127101844       -0.7117260468        0.1351277887
 N          4.3417183382       -1.1904934457        0.2556528923
 C          3.5548463439       -0.1746745505        0.0304198832
 C          2.1086193684       -0.2112984284        0.0415582870
 C          1.4443528602       -1.4384790401        0.1281005601
 C          0.0657438906       -1.4400639890        0.1295721962
 C         -0.6239876983       -0.2271107036        0.0598623172
 C         -2.0859934236       -0.1689956297        0.0599534577
 C         -2.7644293026        0.7917594657        0.8091492037
 C         -4.1411265929        0.8437058661        0.8161903033
 C         -4.8905839761       -0.0480118000        0.0445070145
 N         -6.2814744802        0.0144220636        0.0345099948
 C         -6.9411418104        1.2391513306        0.2116604004
 C         -6.4491479794        2.4052711398       -0.3729211847
 C         -7.1068134772        3.6060174438       -0.1877659667
 C         -8.2647875940        3.6627784670        0.5704989375
 C         -8.7623292815        2.5050723428        1.1459056341
 C         -8.1072359318        1.3012321999        0.9735644189
 C         -7.0457465244       -1.1453095383       -0.1579106033
 C         -6.6726048033       -2.3510949701        0.4341164462
 C         -7.4321174146       -3.4875641381        0.2340191885
 C         -8.5751536820       -3.4396432283       -0.5471148843
 C         -8.9547065172       -2.2418083923       -1.1302038401
 C         -8.1973665969       -1.1019874578       -0.9427449165
 C         -4.2127516459       -1.0028472363       -0.7175134457
 C         -2.8367577195       -1.0690947966       -0.6953996543
 C          0.1477591237        0.9360386910       -0.0201487753
 N          1.4618056365        0.9506447790       -0.0360966096
 O          4.2204905666        0.9602815166       -0.2313389806
 C          5.5355067654        0.6395060329       -0.1624233599
 C          6.5164969807        1.6883622772       -0.3656487652
 C          7.7753267801        1.6334424336        0.2334256412
 C          8.6878634672        2.6481804894        0.0199406393
 C          8.3596914754        3.7296066662       -0.7825663471
 C          7.1039079890        3.8001984268       -1.3630946537
 C          6.1847082045        2.7903886623       -1.1550947777
 C          7.8964405434       -1.4593881884       -0.5083009186
 C          8.9588273942       -2.3300576205       -0.3545301293
 H          9.7310668150       -4.0268955138        0.6989363746
 H          7.7011431209       -4.3129926365        2.0727991047
 H          5.7942661571       -2.7616085203        1.7900187069
 H          2.0226764107       -2.3455390806        0.1909529326
 H         -0.4825909199       -2.3684261064        0.2042057118
 H         -2.2032161305        1.4827676759        1.4207645095
 H         -4.6494585661        1.5754941595        1.4264191086
 H         -5.5526277947        2.3612734984       -0.9739104695
 H         -6.7162172626        4.5025686193       -0.6462267684
 H         -8.7763235942        4.6027238569        0.7115035631
 H         -9.6627516070        2.5403671834        1.7413162607
 H         -8.4914847157        0.4004229365        1.4295025922
 H         -5.7878129091       -2.3878777032        1.0527528756
 H         -7.1334350172       -4.4156782385        0.6987777511
 H         -9.1667332232       -4.3295127101       -0.6994778739
 H         -9.8427366401       -2.1957220999       -1.7432060212
 H         -8.4897343981       -0.1701665437       -1.4044751900
 H         -4.7753519317       -1.6888650217       -1.3333238792
 H         -2.3314003907       -1.8062606714       -1.3022494988
 H         -0.3274078776        1.9058986687       -0.0951405743
 H          8.0267408392        0.8018452689        0.8737666627
 H          9.6605579430        2.5981347403        0.4868099001
 H          9.0787738143        4.5179321690       -0.9490434493
 H          6.8404579187        4.6459405041       -1.9811559200
 H          5.2040446557        2.8404576309       -1.6038651166
 H          7.9411270492       -0.6735366946       -1.2480222824
 H          9.8396571199       -2.2132319649       -0.9690593864
  69
  -107.509870276900       0.104888799366476      !
 C          8.6160154770       -3.5859066923       -0.4659780255
 C          7.4318282040       -3.7042092872       -1.1746916031
 C          6.4445644012       -2.7470367698       -1.0386328508
 C          6.6377181314       -1.6516632899       -0.2001445256
 C          5.5627850113       -0.6773208954       -0.0623526918
 N          4.2665082299       -1.0945701666       -0.0485248102
 C          3.5450709070       -0.0209708879        0.1240873439
 C          2.0999266474       -0.0190314086        0.1831670042
 C          1.4321813948       -1.2464869194        0.2487855430
 C          0.0559015910       -1.2457896449        0.2633189476
 C         -0.6364134953       -0.0318767636        0.1980339404
 C         -2.0976489686        0.0014738645        0.1499601697
 C         -2.8318820880        1.0282263599        0.7447873806
 C         -4.2097578606        1.0358879546        0.6978075905
 C         -4.9030348322        0.0140516093        0.0464657325
 N         -6.2980874184        0.0045356446        0.0043770451
 C         -7.0058921699        1.1982968376       -0.1735370273
 C         -6.4920757705        2.2091744541       -0.9855702001
 C         -7.1964887627        3.3838004140       -1.1640201907
 C         -8.4228696411        3.5676361561       -0.5468069022
 C         -8.9382480089        2.5658499120        0.2593959628
 C         -8.2373604737        1.3912305384        0.4518124669
 C         -6.9807868998       -1.2149717805        0.0990167987
 C         -6.5182388509       -2.2116370470        0.9583260473
 C         -7.1826553771       -3.4192264160        1.0456780343
 C         -8.3198020292       -3.6504393764        0.2890303465
 C         -8.7868785980       -2.6615466258       -0.5611266387
 C         -8.1242362615       -1.4534836331       -0.6622784493
 C         -4.1730680576       -1.0075003827       -0.5636796311
 C         -2.7977728338       -1.0112408894       -0.5092085029
 C          0.1397650399        1.1312084252        0.1574572827
 N          1.4552753057        1.1455191251        0.1538959860
 O          4.2801235527        1.0965453257        0.2245610444
 C          5.5715642550        0.6986748790        0.1002273505
 C          6.6211957743        1.6983454931        0.1189045613
 C          6.4071312570        2.9117385923        0.7744871733
 C          7.3994396124        3.8724487140        0.8025401689
 C          8.6121033219        3.6410815497        0.1738904350
 C          8.8234567142        2.4463847382       -0.4965243370
 C          7.8372616640        1.4799947357       -0.5301335946
 C          7.8239378252       -1.5452564371        0.5217200920
 C          8.8055059290       -2.5092535346        0.3855081213
 H          9.3874847292       -4.3346197624       -0.5711601475
 H          7.2768570128       -4.5468001938       -1.8327891246
 H          5.5127681416       -2.8312390017       -1.5765452816
 H          2.0094378680       -2.1552746920        0.2895852461
 H         -0.4876350682       -2.1762235005        0.3404295760
 H         -2.3172890780        1.8127312916        1.2792780367
 H         -4.7642575780        1.8299062849        1.1762671841
 H         -5.5426982287        2.0628981146       -1.4797632808
 H         -6.7887700772        4.1566945557       -1.7988791665
 H         -8.9731365681        4.4845348808       -0.6935252796
 H         -9.8912033304        2.7025258367        0.7491106648
 H         -8.6375973405        0.6153307506        1.0879296330
 H         -5.6369305477       -2.0298694776        1.5559974785
 H         -6.8138962653       -4.1819881715        1.7156776490
 H         -8.8381672795       -4.5944158358        0.3617718417
 H         -9.6699491099       -2.8349090588       -1.1585002419
 H         -8.4842632981       -0.6886339292       -1.3348086561
 H         -4.6972597297       -1.7938907166       -1.0866691455
 H         -2.2542820537       -1.7965595820       -1.0129934013
 H         -0.3285351908        2.1054259565        0.1001298457
 H          5.4599918353        3.0873182756        1.2619793393
 H          7.2273739198        4.8061476975        1.3177276676
 H          9.3881162797        4.3917074547        0.1997319446
 H          9.7619813913        2.2687942513       -1.0008073751
 H          7.9978070845        0.5584881097       -1.0683952347
 H          7.9677675105       -0.7135579276        1.1960164135
 H          9.7234458666       -2.4216445338        0.9483408653
  69
  -107.507733981900       1.093845307774043E-002 !
 C          8.7042956967       -3.5312879940        0.6331179396
 C          8.8635699427       -2.2311059211        1.0847506807
 C          7.8570011550       -1.3014973679        0.9033771273
 C          6.6773956184       -1.6660083467        0.2574650008
 C          5.5842376739       -0.7227787769        0.0720800269
 N          4.2906471700       -1.1519890677        0.0970784423
 C          3.5537982886       -0.0873729678       -0.0103733448
 C          2.1085641251       -0.0117543747       -0.0173590476
 C          1.4655153437        1.2301526567        0.0083325625
 C          0.0869868454        1.2609503001        0.0081219232
 C         -0.6289532331        0.0624274335       -0.0227953107
 C         -2.0912420699        0.0395208872       -0.0197639696
 C         -2.8175425219        0.9352140983        0.7652134859
 C         -4.1947973391        0.9108542414        0.7825213935
 C         -4.8986062620       -0.0015535960       -0.0067697787
 N         -6.2914238132       -0.0205477547       -0.0007108879
 C         -7.0139621840        1.1662827081        0.1847079563
 C         -6.5906709297        2.3543269325       -0.4095818468
 C         -7.3073039308        3.5200241173       -0.2201145640
 C         -8.4563375249        3.5196645395        0.5535463968
 C         -8.8845063937        2.3402581576        1.1405366907
 C         -8.1706104525        1.1711409704        0.9632837646
 C         -6.9861468405       -1.2263360684       -0.1677930370
 C         -6.5162837946       -2.4039683148        0.4119447572
 C         -7.2077605012       -3.5874517159        0.2395995442
 C         -8.3777421208       -3.6153096385       -0.5013250702
 C         -8.8524699111       -2.4461999142       -1.0731584511
 C         -8.1638237657       -1.2595687812       -0.9136895057
 C         -4.1749763883       -0.8937459833       -0.8019296708
 C         -2.7974444602       -0.8785968607       -0.7974355988
 C          0.1229943080       -1.1179905978       -0.0490904556
 N          1.4351019980       -1.1601180059       -0.0447205516
 O          4.2801323403        1.0486104158       -0.1131852458
 C          5.5793464587        0.6542594232       -0.0784119996
 C          6.6113823124        1.6575445497       -0.2574236598
 C          7.8246204630        1.3409985461       -0.8705823557
 C          8.7863018886        2.3160898844       -1.0472904231
 C          8.5535642351        3.6159503037       -0.6253948018
 C          7.3454378130        3.9406774145       -0.0311747376
 C          6.3777419706        2.9712412408        0.1497135822
 C          6.5134591816       -2.9808209123       -0.1731369963
 C          7.5245689468       -3.9046012308        0.0102444344
 H          9.4948915025       -4.2534620786        0.7755986310
 H          9.7749578212       -1.9413820534        1.5872105008
 H          7.9766740523       -0.2945685839        1.2755203800
 H          2.0466952020        2.1389227156        0.0235902844
 H         -0.4384230420        2.2055261168        0.0110727947
 H         -2.2935504626        1.6362534838        1.3983765270
 H         -4.7389452228        1.5960000489        1.4158063127
 H         -5.7007525713        2.3540273424       -1.0219644100
 H         -6.9706236287        4.4334819077       -0.6880518345
 H         -9.0154000568        4.4318479600        0.6967116683
 H         -9.7774493832        2.3316934514        1.7479319228
 H         -8.5011311624        0.2537477600        1.4277897851
 H         -5.6103147121       -2.3824658002        0.9998336170
 H         -6.8338104018       -4.4925674039        0.6949475885
 H         -8.9165796080       -4.5413867971       -0.6319754995
 H         -9.7619597448       -2.4595605563       -1.6555310390
 H         -8.5308588189       -0.3502471126       -1.3668425333
 H         -4.7051014769       -1.5949442305       -1.4293903758
 H         -2.2570260873       -1.5647244455       -1.4325109067
 H         -0.3694575428       -2.0818597138       -0.0543539038
 H          7.9992346778        0.3338632397       -1.2175506165
 H          9.7217259973        2.0631191833       -1.5239404929
 H          9.3102364772        4.3736945169       -0.7645365897
 H          7.1561951116        4.9538560896        0.2918771310
 H          5.4352576285        3.2207555683        0.6135656450
 H          5.5837372777       -3.2579238904       -0.6451041317
 H          7.3925568316       -4.9212130280       -0.3305027840
