57
 energy: -96.293328906522 gnorm: 0.000042001630 xtb: 6.7.1 (edcfbbe)
F           -2.56316401765610        2.27791226505386        1.34472654770093
C           -1.54888807307454        1.49782040206884        0.88019616813348
C           -0.24344229515972        1.90629630844537        1.09025423245725
C            0.80932326133153        1.11029831875182        0.63261980139809
N            2.08098141261331        1.42808765046757        0.84903119783834
C            3.08125361733384        0.66404657347201        0.39984569708436
C            4.43666960068443        1.04129716298964        0.79898452064710
C            5.37967340824854        0.08832505841917        1.18604697730513
C            6.64296304807032        0.48059688185412        1.58413325348355
C            6.98487700351936        1.82404370839272        1.60839120675892
C            6.04649775751681        2.77817186800403        1.24828503740898
C            4.78001114854250        2.39313126325756        0.85283789416417
C            2.78608599672751       -0.46368345201489       -0.38991001647415
C            3.81175482416318       -1.25541785735574       -1.07300254582833
C            4.88751698817345       -0.64791076388055       -1.72061521803669
C            5.82408020409474       -1.41663231785651       -2.38443264566057
C            5.70015057763288       -2.79712524238436       -2.41784643472995
C            4.62203800469242       -3.40598489691178       -1.79566996169714
C            3.67967756711230       -2.64279823439751       -1.13289100834859
N            1.51850641319789       -0.83109302742877       -0.56839354357213
C            0.50537919454554       -0.11188831110464       -0.07720439451963
C           -0.82255574905995       -0.48417694131846       -0.25991815191348
C           -1.86266214578995        0.31859782742899        0.21999122432563
N           -3.21798879157980       -0.05859950154701        0.03605221798642
C           -3.78440411880143       -1.04304173661980        0.83216870238320
C           -3.03888616301236       -1.76975660376465        1.75762385456436
C           -3.64089800361369       -2.74391519255464        2.53356548486809
C           -4.99508953663151       -3.00786210973684        2.40549599130824
C           -5.75435058216650       -2.28844736852777        1.49773888848616
C           -5.15983247533130       -1.31175236730646        0.71532514684284
O           -5.96316460444480       -0.62688569214699       -0.15341785738063
C           -5.38799089291476        0.33681077925584       -0.93412683405526
C           -6.20926634064805        1.01638037789393       -1.81879648584006
C           -5.67978878485859        1.99223944322707       -2.64660832255238
C           -4.32536487276137        2.28032807873180       -2.59454598939484
C           -3.49850389735739        1.60767682496705       -1.71333681692771
C           -4.01606390249531        0.63552899168630       -0.86065316076462
H           -0.03599239144746        2.82024855399648        1.62085350793850
H            5.11504154972575       -0.95882642819122        1.18625041766745
H            7.36386785842970       -0.26659583944402        1.88230384489857
H            7.97536034122255        2.12583610318516        1.91510049227183
H            6.30231750347325        3.82746249020775        1.27659087499676
H            4.04175299573092        3.13003907301601        0.57300028249595
H            4.98002756823687        0.42830482727524       -1.71125638630844
H            6.65250792810905       -0.93508809623768       -2.88305235237928
H            6.43729449731344       -3.39471420096541       -2.93333110560531
H            4.51400024191252       -4.48042585231081       -1.82821367588998
H            2.83502625333034       -3.10851519129728       -0.64718644655728
H           -1.04525595128738       -1.39207060161079       -0.79622758303377
H           -1.98602481897879       -1.56278581864854        1.86526889359389
H           -3.04467194690120       -3.29541573393038        3.24347237836882
H           -5.46315328858071       -3.76645686274715        3.01218386754739
H           -6.81177557138837       -2.46382705567612        1.38081769111774
H           -7.25726201935139        0.76381414144347       -1.84163313966204
H           -6.32396678692832        2.52006675282324       -3.33141761159425
H           -3.90443011503662        3.03203059215293       -3.24375134319263
H           -2.44338118094606        1.83064940692404       -1.68029161851301
