69
 energy: -116.057176033084 gnorm: 0.000125322047 xtb: 6.7.1 (edcfbbe)
C            7.50482658821017        2.82450845582766        2.35210276816528
C            6.12270919362089        2.87041187533193        2.37691048468923
C            5.37864103750850        2.05357559670419        1.54318800668337
C            6.00793913199248        1.17869651404589        0.66292405182235
C            7.41122087958608        1.12272047823876        0.66152720102354
C            8.14788754516091        1.94392298025703        1.49657408993797
O            8.10696400596131        0.25996117405185       -0.14303466118347
C            7.38602795363086       -0.55881320608426       -0.97096625066309
C            8.09634471342834       -1.42681332941571       -1.78119194060384
C            7.42681785766253       -2.26866902232227       -2.65528917308821
C            6.04592846096857       -2.22904137526038       -2.72393245246013
C            5.32802056219545       -1.36368312397199       -1.91676764097840
C            5.98305358526427       -0.52701107951277       -1.01811522236543
N            5.29288193105320        0.34789400420389       -0.18953453457291
C            3.87565965221696        0.38362376001461       -0.21032840502771
C            3.22205896651594        1.47925535958742       -0.75520456221286
C            1.83247070250290        1.59178548651523       -0.80934011526815
C            1.06793448774285        0.55558880535511       -0.29290569897912
C            1.74454417371060       -0.56372362206319        0.26429296077537
C            0.83871008098586       -1.53028433589637        0.75104467240577
C            1.33417035450978       -2.67861384420350        1.33212424565839
C            2.72534409022543       -2.82614756283392        1.41515408343472
C            3.60973811258741       -1.88113723809768        0.93879048243540
C            3.13003937866174       -0.69973664608852        0.33288652775387
C           -0.48305188695333       -1.00348068794163        0.48921116297545
N           -1.66268963456474       -1.48729202233025        0.73526856592538
C           -2.76179770299165       -0.79209544239001        0.39441681223370
C           -4.03972928247356       -1.27364628108958        0.64908998065629
C           -5.17909327426207       -0.55646338423777        0.30474429482918
C           -6.49573066689301       -1.09717885304190        0.66365501444821
C           -6.81548976923076       -2.43204136042749        0.41457554241881
C           -8.06608957802616       -2.89859203644791        0.77925910457461
N           -8.98566903899192       -2.14890037025826        1.36380021249945
C           -8.68041835827654       -0.88645721681478        1.61495529853849
C           -7.46359341551167       -0.31271797596362        1.29211039879130
C           -5.03888639798857        0.68857922731587       -0.33884319740934
C           -6.20923619051951        1.45033164090555       -0.80083003057055
C           -7.22049966303880        0.84787318093296       -1.54822710333706
C           -8.28808904241762        1.62167104931967       -1.96874776347539
N           -8.40726060722448        2.91161857064795       -1.70233732820795
C           -7.44440622957508        3.48757457875270       -1.00275232166466
C           -6.32970110345371        2.81325890947380       -0.53469680997221
C           -3.77524935504417        1.19296393365737       -0.59619114196908
C           -2.61425641338917        0.49689700843792       -0.24791352178303
N           -1.40002459066280        0.97938472754268       -0.49424870843995
C           -0.32588403599946        0.29005287942591       -0.15663317699207
H            8.08579764305030        3.46282262383593        2.99851901584405
H            5.61303821162378        3.54288451593438        3.04921540540556
H            4.30108370610180        2.08640524102222        1.57363753213498
H            9.22332892779566        1.87513333720773        1.46342263276665
H            9.17239698409448       -1.42500244992720       -1.71400257352468
H            7.98715229247736       -2.94410189047143       -3.28191604429301
H            5.51690416338360       -2.87169620316232       -3.41024226681782
H            4.25205763152170       -1.33113433518333       -1.98107449884555
H            3.82624602570371        2.28052023785772       -1.15803671628600
H            1.37381810345177        2.46370262766324       -1.24782132760553
H            0.67795841893128       -3.44413854949954        1.71591375908692
H            3.11949009842302       -3.72163758577438        1.87358984295680
H            4.67335925187267       -2.04723173922108        1.02965791919123
H           -4.12982156625518       -2.22180988960494        1.15709061070140
H           -6.10569724047301       -3.08235638953491       -0.07431303495144
H           -8.35166019535662       -3.92619471590935        0.59351182652643
H           -9.45428636702539       -0.30724100118781        2.10179591517441
H           -7.26279390188048        0.71942394525727        1.53548585296542
H           -7.16638796651554       -0.19934798826555       -1.80371537614985
H           -9.09198627912448        1.18863585590087       -2.54963703331492
H           -7.57718862779649        4.54422223303859       -0.80846787079890
H           -5.57597428364790        3.32631608895583        0.04354517420036
H           -3.66135167212939        2.13720652446653       -1.10656595685834
