69
 energy: -116.105706670464 gnorm: 0.000083451406 xtb: 6.7.1 (edcfbbe)
C            7.53274641933214       -3.05039189344426       -2.15776329650450
C            6.15406059886241       -3.10728899395975       -2.19056180770854
C            5.39755224143405       -2.22427196087059       -1.43564824121591
C            6.00883759855459       -1.27460889847309       -0.62677340137034
C            7.40829004056305       -1.20138769270347       -0.62889219024294
C            8.15812171345290       -2.08749345537501       -1.38033023552478
O            8.09927707707768       -0.25237809880860        0.08191993471966
C            7.37039359785468        0.60952211470590        0.86156662477671
C            8.07914649767333        1.52535541942945        1.61744764019553
C            7.41214165664556        2.40818986992647        2.45329991035782
C            6.03586647389953        2.35137186301628        2.54470536174125
C            5.32057528655024        1.43482054733354        1.78992550817794
C            5.97136930398596        0.57107556833638        0.91761277200436
N            5.27787056943801       -0.35952784957807        0.13751427008515
C            3.87192289577825       -0.39522821429106        0.16033961191918
C            3.21447985831591       -1.50917751447851        0.65369325374443
C            1.81787031523646       -1.61386297933660        0.70606468134234
C            1.06685373205283       -0.56003328432120        0.24400298715825
C            1.73430028512804        0.57744822076515       -0.26902668486705
C            0.83285514846910        1.56951191262482       -0.72255248695087
C            1.33336195920432        2.72456990463853       -1.26871905584806
C            2.72949271518142        2.86593489944092       -1.35954569182418
C            3.60662328849043        1.90567426964760       -0.91354137236889
C            3.12317903994901        0.71068498640734       -0.33554012526233
C           -0.49821853311244        1.03830874368093       -0.47331970660536
N           -1.65816231025531        1.57653157462383       -0.71627447307141
C           -2.73321073961130        0.82313277212684       -0.36980761471816
C           -4.02199270059485        1.32686033453536       -0.60213743126593
C           -5.14118191588304        0.59917895391386       -0.27037488507955
C           -6.47206574958890        1.14052341743816       -0.59171049307028
C           -6.81853488443373        2.44350562132568       -0.24020421152717
C           -8.07968317228067        2.90910003166922       -0.57207625487022
N           -8.97898359790685        2.18588825725368       -1.21684849642601
C           -8.64652762034796        0.95470201812937       -1.56552562605267
C           -7.41760556515345        0.38390113549929       -1.28161259443925
C           -4.99869835160398       -0.67683581011627        0.33542383709787
C           -6.17704754528633       -1.44421878786330        0.77177595394624
C           -7.17460339042831       -0.86359664256522        1.55286193588270
C           -8.25013507929269       -1.64283180047535        1.94374513306372
N           -8.38812581086398       -2.91611278517968        1.61573626914165
C           -7.43787044278365       -3.47162138926573        0.88365665197348
C           -6.31633082345998       -2.79058170503892        0.44126229891098
C           -3.74288516028429       -1.19109770254730        0.55950985701707
C           -2.59002134392144       -0.46795874265965        0.21668059690620
N           -1.37207297492316       -1.01496027238089        0.45945477306325
C           -0.35204141275798       -0.27769294196286        0.12244209337220
H            8.12582954753174       -3.73836689121196       -2.73906980787737
H            5.65184750992039       -3.83672808545611       -2.80701806421702
H            4.32095545067912       -2.26862024064615       -1.48530168705969
H            9.23238904562366       -2.00115506406346       -1.34792951137873
H            9.15453217310055        1.52771956630705        1.53955187172290
H            7.97280221394277        3.12243447758382        3.03513323441634
H            5.50431119969885        3.01614323876739        3.20784314926884
H            4.24681730532024        1.39060427697411        1.88246231322603
H            3.81198779238800       -2.33003829050937        1.02465262207470
H            1.35426714242320       -2.49954208822164        1.11115366375319
H            0.67946502165308        3.50470680061785       -1.62588224882863
H            3.12572905451117        3.76891360192087       -1.80077067976199
H            4.67074680351475        2.06403062975482       -1.00752868796050
H           -4.11002669039074        2.29406420996745       -1.07366867774380
H           -6.12163869768368        3.06857167037030        0.29753818683123
H           -8.38951066653777        3.91206913118873       -0.30825925421370
H           -9.40644779492648        0.39850542617460       -2.09857661725990
H           -7.19276333024284       -0.62273323002223       -1.59953255502107
H           -7.10478070972169        0.16935694644096        1.85796406561661
H           -9.04448998561997       -1.22757661006703        2.54999180497451
H           -7.58663785454677       -4.51569529962057        0.64011777215945
H           -5.57168001523136       -3.28478592251250       -0.16437147497267
H           -3.61489270370932       -2.15450627450581        1.02964300246109
