  69
       -116.10563912
 C          7.5343870589        3.0094071873        2.1708146947
 C          6.1558490876        3.0568473566        2.2209363009
 C          5.3959586268        2.1816476869        1.4604118853
 C          6.0035280069        1.2494774228        0.6286656053
 C          7.4032436440        1.1842740199        0.6141064379
 C          8.1564715488        2.0629199005        1.3709213616
 O          8.0912878955        0.2508682865       -0.1197178118
 C          7.3579673354       -0.6080310346       -0.8985233501
 C          8.0631074637       -1.5136817739       -1.6699448514
 C          7.3917729507       -2.3917652999       -2.5072789057
 C          6.0144987916       -2.3396674737       -2.5849522105
 C          5.3028072326       -1.4336575979       -1.8142504655
 C          5.9582371996       -0.5757946984       -0.9396679143
 N          5.2686892688        0.3432168423       -0.1423765346
 C          3.8628039728        0.3827704443       -0.1602327054
 C          3.2076788057        1.5062362930       -0.6349830594
 C          1.8114057513        1.6156874333       -0.6835453076
 C          1.0582237140        0.5570921322       -0.2360963259
 C          1.7231001139       -0.5894018992        0.2597829917
 C          0.8193221460       -1.5849971190        0.7009651881
 C          1.3173660467       -2.7501806421        1.2274912245
 C          2.7132741439       -2.8973040215        1.3130855153
 C          3.5925541421       -1.9330127166        0.8802411344
 C          3.1117262633       -0.7279200360        0.3212471795
 C         -0.5105809296       -1.0453423015        0.4637305247
 N         -1.6718953574       -1.5807141476        0.7065917431
 C         -2.7450027481       -0.8193975476        0.3715075713
 C         -4.0352058823       -1.3176417640        0.6076533664
 C         -5.1527216001       -0.5837147063        0.2834721299
 C         -6.4838560756       -1.1208713068        0.6104447203
 C         -6.8339809214       -2.4242766103        0.2637890453
 C         -8.0944861661       -2.8870429492        0.6017874146
 N         -8.9902808001       -2.1604699227        1.2476431605
 C         -8.6544225997       -0.9288888595        1.5916567864
 C         -7.4254967693       -0.3609181920        1.3019808953
 C         -5.0071425822        0.6932841935       -0.3198382031
 C         -6.1821807430        1.4666438142       -0.7541106880
 C         -7.1902162795        0.8888706220       -1.5239797976
 C         -8.2607708483        1.6747127268       -1.9150413101
 N         -8.3842500112        2.9523391328       -1.5985180369
 C         -7.4240288253        3.5052662917       -0.8775193219
 C         -6.3068805763        2.8172661188       -0.4349902022
 C         -3.7495289874        1.2032266982       -0.5448972496
 C         -2.5985597177        0.4748375006       -0.2070766599
 N         -1.3792848395        1.0204852314       -0.4460859934
 C         -0.3611998462        0.2770527629       -0.1169459194
 H          8.1300101279        3.6915132985        2.7563890716
 H          5.6565490803        3.7725003331        2.8555967490
 H          4.3197449512        2.2182126456        1.5232639941
 H          9.2307874668        1.9840215791        1.3244502070
 H          9.1392200150       -1.5117307016       -1.6028970732
 H          7.9496709818       -3.0984883547       -3.1009046062
 H          5.4790555856       -3.0010491333       -3.2483928902
 H          4.2280852576       -1.3936937177       -1.8959580631
 H          3.8070396637        2.3311461518       -0.9937950461
 H          1.3495917085        2.5084561339       -1.0748735077
 H          0.6618484533       -3.5335854793        1.5744002636
 H          3.1075511610       -3.8087781916        1.7382853236
 H          4.6563731451       -2.0965119126        0.9685326828
 H         -4.1256436300       -2.2860484156        1.0762299086
 H         -6.1403184439       -3.0518489134       -0.2751181689
 H         -8.4067070736       -3.8903522680        0.3421830054
 H         -9.4115947051       -0.3698772539        2.1256790924
 H         -7.1978609795        0.6461440540        1.6165544508
 H         -7.1319644116       -0.1469757902       -1.8214545631
 H         -9.0633907594        1.2612360892       -2.5115887213
 H         -7.5601660892        4.5533640735       -0.6442315912
 H         -5.5541391709        3.3100517573        0.1617440087
 H         -3.6184602398        2.1675408075       -1.0122857368
