69
 energy: -116.105706778937 gnorm: 0.000030277293 xtb: 6.7.1 (edcfbbe)
C            7.53958579509679        3.01032423746311        2.16356460753889
C            6.16120321276221        3.07189296756960        2.20027541285324
C            5.39966391978595        2.19784584742402        1.43999836686807
C            6.00555771112866        1.25268592101435        0.62185855249777
C            7.40473211911810        1.17439373273201        0.61987777018625
C            8.15958126778059        2.05162933453708        1.37668838623369
O            8.09053627096944        0.22876038227937       -0.10040227944354
C            7.35666925142475       -0.62354221280785       -0.88595407834980
C            8.06019021554593       -1.53519510510497       -1.65171007891913
C            7.38788465581605       -2.40795441576747       -2.49387639110752
C            6.01162680592710       -2.34516190364051       -2.58152451692732
C            5.30157291153882       -1.43282158476067       -1.81678986657755
C            5.95768318307604       -0.57944628564432       -0.93827318321960
N            5.26946101589462        0.34654228288956       -0.14810327672081
C            3.86358833162158        0.38686624662856       -0.16698739801216
C            3.20828950476825        1.50683876347960       -0.64940374761641
C            1.81186577380542        1.61595002588509       -0.69775403144999
C            1.05886835322590        0.56038710771173       -0.24294810908503
C            1.72418539369507       -0.58325719770983        0.25904172810344
C            0.82093173185933       -1.57656552214814        0.70615326963939
C            1.31932702597693       -2.73767889839351        1.24129697834559
C            2.71524006767652       -2.88372140133709        1.32796139585224
C            3.59412455146122       -1.92221224035778        0.88815035240358
C            3.11280456557319       -0.72102487269599        0.32132364923686
C           -0.50912925980369       -1.03938248551656        0.46461349546259
N           -1.67003373795007       -1.57610436048809        0.70617510274196
C           -2.74365498963872       -0.81670708521494        0.36855421603379
C           -4.03324374601871       -1.31824912963215        0.60082060948782
C           -5.15121634383625       -0.58477067598735        0.27781918847976
C           -6.48229970826508       -1.12507317167247        0.59997513413627
C           -6.83233145294346       -2.42529370800499        0.24174736050400
C           -8.09284856611687       -2.89096928325370        0.57580063928882
N           -8.98838199487740       -2.17031896957202        1.22864342151865
C           -8.65260190692423       -0.94178338758246        1.58341821574946
C           -7.42391541751178       -0.37114800196887        1.29812976119099
C           -5.00667357085991        0.69522067278132       -0.31909937478455
C           -6.18412548758231        1.46891491550657       -0.74654926962637
C           -7.18686326600303        0.89565982770949       -1.52650245571107
C           -8.26190561853847        1.68012626902352       -1.90807508151672
N           -8.39465506805375        2.95197208556670       -1.57239562689015
C           -7.43931957051774        3.50067820329427       -0.84180901088701
C           -6.31785415591751        2.81389329434939       -0.40817338598497
C           -3.74989403514869        1.20743044550149       -0.54271263367090
C           -2.59821716151015        0.47845784908028       -0.20828101151529
N           -1.37923516933322        1.02387548892691       -0.44955240335489
C           -0.36056752870138        0.28103039929226       -0.12073819652308
H            8.13656835988815        3.69137509780953        2.74902008306852
H            5.66315484366324        3.79805760875993        2.82393428874434
H            4.32335789017527        2.24562193186758        1.49265649226595
H            9.23344469477396        1.96172858844699        1.34090428512005
H            9.13573766559058       -1.54233288479822       -1.57639508333672
H            7.94446569815438       -3.11908527382493       -3.08339475785423
H            5.47602188544659       -3.00189251245931       -3.24939295022614
H            4.22777402859740       -1.38371948042577       -1.90633609259075
H            3.80736870451481        2.32899188528084       -1.01492477143655
H            1.34991652422020        2.50626789528501       -1.09447192070408
H            0.66400643276139       -3.51894953754061        1.59334182905455
H            3.10984125207433       -3.79166636291906        1.76036900067896
H            4.65800311145053       -2.08445168888267        0.97820642251452
H           -4.12281112408145       -2.28864200833703        1.06544569694704
H           -6.13855729927991       -3.04811649098697       -0.30259302323909
H           -8.40520929769959       -3.89189098754749        0.30724745837318
H           -9.40958084128488       -0.38762663171558        2.12273633193618
H           -7.19621479366623        0.63315425823057        1.62134912731859
H           -7.12142016111291       -0.13572783487000       -1.83778489517642
H           -9.06038476270192        1.27046397121588       -2.51270492370227
H           -7.58377971697215        4.54388869767468       -0.59205960370083
H           -5.56908209287673        3.30264181002449        0.19680016290254
H           -3.62025649825282        2.17390301984981       -1.00606044768214
