106
 energy: -162.479153696085 gnorm: 0.000052499634 xtb: 6.7.1 (edcfbbe)
C           -6.53408237088043        2.26676270266231       -4.96380073825281
C           -5.63520281270851        3.16221214873242       -4.40975077598572
C           -4.94475319260192        2.82985404936904       -3.25877020290056
C           -5.15221154651666        1.60052292182458       -2.64021891783324
C           -4.40903109604870        1.25887364687920       -1.41376572583480
C           -3.02674254494826        1.39009178657581       -1.40263838602866
C           -2.27932724992375        1.06400604786777       -0.28080067815671
C           -0.81574039851202        1.23404421750274       -0.29822286132973
C           -0.05130644408843        0.60488399945844       -1.27572980599734
C            1.32576046166042        0.68975709290438       -1.25346510938557
C            1.96672084317673        1.42599397471285       -0.25970531062514
C            3.41987103146063        1.46966224726100       -0.16660507176804
N            4.13343764361981        2.55121821738341       -0.00731618746169
C            5.43149831820505        2.14089634786035        0.01589762198862
C            6.59842866591822        2.94681376483019        0.12377545517274
C            6.51096676453968        4.33989663250891        0.21700910619527
C            7.64978371662170        5.10261645641162        0.28301372881115
C            8.89498918499490        4.47758286768882        0.25121790644943
C            8.99249925211103        3.10847594922441        0.16663538818867
C            7.85186765255014        2.29291527707562        0.10848224661264
C            7.92081794198518        0.84287991316344        0.05839801966656
C            9.14436419934837        0.16148744938500        0.12834398880487
C            9.21619014188922       -1.21126559537222        0.13109140606090
C            8.05208391184631       -1.97163501399765        0.08335327952393
C            6.83367984959805       -1.34387448488115        0.00525383433624
C            6.74052527853946        0.05482066830485       -0.03222068592557
C            5.50479101565589        0.75564665849259       -0.11732863571428
N            4.19987528493265        0.33414788757577       -0.24443395514390
C            3.67646626304542       -0.95679711880238       -0.43062614209145
C            2.74145914934807       -1.45266651118054        0.47213824093756
C            2.16439818225901       -2.68717156092054        0.25499137817874
C            2.51238310390141       -3.45281892090312       -0.85598848270031
C            1.89067825164430       -4.76182083981127       -1.08270697860636
C            0.53367457230846       -4.97697674323977       -0.84574730596587
C           -0.00355196747577       -6.23039048957191       -1.07804042074064
C            0.83523496455866       -7.23164905115504       -1.54513892098672
N            2.12501531442523       -7.04548146413060       -1.76778268753588
C            2.63439616419941       -5.85098538249346       -1.54159844735287
C            3.45927601414240       -2.95104359001286       -1.74790470271603
C            4.03080216585011       -1.71126854699339       -1.54573941360156
C            1.20013301467835        2.11864566210234        0.67436964245726
C           -0.17491998620213        2.01383153993460        0.66093694417282
C           -2.92546343663639        0.58113912567071        0.86209621027250
C           -2.13480075143399        0.20862274694276        2.05250658206126
C           -1.11251097058742       -0.73051270453773        1.95020773242673
C           -0.36914203233823       -1.07970551991991        3.06177056037889
C           -0.63215159932874       -0.49349446649895        4.28822546469661
C           -1.64509458358241        0.44371803029634        4.39778950159197
C           -2.39305486487134        0.79179884824510        3.28870651136571
C           -4.31672268324712        0.44721420654718        0.86363740821818
C           -5.00207371115838       -0.06037174131908        2.07084040970352
C           -4.67922214944151       -1.30948086283948        2.59081727924806
C           -5.32055198504271       -1.78558564674965        3.71885414011473
C           -6.28913349427070       -1.01882054717598        4.34389682007651
C           -6.61461014934833        0.22661918448678        3.83404151490439
C           -5.97721694416302        0.70314566965925        2.70386696317149
C           -5.06227804769320        0.78817222755151       -0.26928235608096
C           -6.53328067111926        0.66053428870496       -0.25341818944191
C           -7.13913517410293       -0.55897602155498        0.03178327334205
C           -8.51676648705773       -0.67019980756358        0.04352619857534
C           -9.30677067194067        0.43456752102891       -0.22557075558468
C           -8.71177334408255        1.65206190494364       -0.50986081779051
C           -7.33436447555174        1.76497632083493       -0.52604787759535
C           -6.05012566112576        0.70259444760300       -3.20998476600953
C           -6.73477564678104        1.03484523891667       -4.36364900954313
H           -7.07451189399644        2.52693374118371       -5.86196134647993
H           -5.47240074777110        4.12356597384394       -4.87519476292975
H           -4.25104825406506        3.53386908180560       -2.82093785903574
H           -2.52153654127676        1.75419416450611       -2.28595452572618
H           -0.54266494035068        0.02114874407787       -2.04138521178745
H            1.90427105800785        0.18854589102872       -2.01580100383533
H            5.52740373434669        4.78325586478806        0.22739892507698
H            7.58748196981040        6.17855390368277        0.35346569079572
H            9.79465297824144        5.07459719744053        0.29370537726880
H            9.97753995761513        2.66999771789059        0.14188050980594
H           10.06504332983362        0.71847980753135        0.19285338442486
H           10.17758274350830       -1.70043194592639        0.18575318785468
H            8.10517955023028       -3.04995604186850        0.11261734881616
H            5.93245878083954       -1.93654160299555       -0.00897275587939
H            2.46832046756596       -0.86308526014879        1.33478078211113
H            1.44832100179946       -3.07336009123635        0.96497948195503
H           -0.09292863280605       -4.16480433043564       -0.50461877713831
H           -1.05128532021577       -6.42477459184521       -0.90788492864895
H            0.46349718466308       -8.22641540767624       -1.75148009979709
H            3.69823337573157       -5.75720456749106       -1.71865560980179
H            3.72608725798747       -3.52490542048412       -2.62265663299686
H            4.75004769318187       -1.31661284682765       -2.24872229916074
H            1.70074702922094        2.71861242302578        1.41848093128537
H           -0.76296018964528        2.53613457165566        1.40094266308288
H           -0.90760104521950       -1.19168049879333        0.99402850687096
H            0.41912930561140       -1.81396110212149        2.97514674492748
H           -0.04901632577782       -0.76640642201510        5.15536267335374
H           -1.85338664788816        0.90605004842447        5.35148742306766
H           -3.17783581327917        1.52906746174795        3.37579108380330
H           -3.92796149768549       -1.91204327567067        2.10044743157120
H           -5.06347500784425       -2.75863782526715        4.11166712128360
H           -6.78896630952178       -1.39092509416860        5.22603868117415
H           -7.36853088472967        0.82966163029592        4.31866042775952
H           -6.22843799763009        1.67796626427741        2.31120718142945
H           -6.52502328411713       -1.42475911198087        0.23397302897339
H           -8.97561015739050       -1.62324034675481        0.26334484902844
H          -10.38317955971724        0.34674902690921       -0.21445755048128
H           -9.32330985749051        2.51744543940247       -0.72000064232306
H           -6.87146867177724        2.71720031715920       -0.74258869209781
H           -6.20302275010235       -0.26292139076291       -2.75080563644980
H           -7.42868873459208        0.32912321091499       -4.79652338484822
