106
 energy: -162.392762855622 gnorm: 0.000039519125 xtb: 6.7.1 (edcfbbe)
C           -5.48430000175121       -5.24019812350632       -1.11588290129448
C           -4.55046625068402       -4.63362692240027       -1.93854768504680
C           -4.15928909089387       -3.32904052325520       -1.70022602930562
C           -4.70377210187178       -2.60939922945234       -0.64047331268582
C           -4.27149148163671       -1.22264763311001       -0.38976845973494
C           -2.92102647338115       -0.94515542597803       -0.31095400822679
C           -2.43847277072850        0.34670067266557       -0.06604335596057
C           -1.01063446843356        0.57441073118387       -0.07592098984805
C           -0.13022613856134       -0.38762778064298        0.47264454862413
C            1.22166498958232       -0.22474104309604        0.45667431308414
C            1.81401063172611        0.92050322045213       -0.15632313474620
C            3.18425547499015        1.16464368790537       -0.27308643941538
N            3.67193514202031        2.39904594395815       -0.52451591173347
C            4.98557333480681        2.31836279848695       -0.42961436907778
C            5.93028312987697        3.38222629049699       -0.53427784566061
C            5.50092381763091        4.69917209909900       -0.70831451654085
C            6.41543953307006        5.72838793219773       -0.76070994379694
C            7.76768329892852        5.44019354443642       -0.62786436211304
C            8.20164968758498        4.13948389490059       -0.46276945774314
C            7.30334904100359        3.06657473507667       -0.42211469498363
C            7.72914739772130        1.68032639714924       -0.29795173612477
C            9.07913746636390        1.33084884466532       -0.31254607635043
C            9.50309789831912        0.01873692328190       -0.24729807186728
C            8.56659789042999       -1.01235479929261       -0.18902014139412
C            7.22960828311211       -0.71799250322058       -0.16251670016759
C            6.76855871397250        0.61850459304922       -0.19203041809499
C            5.40885587604747        0.97286335052874       -0.17445654709494
N            4.24721171470254        0.24774417104509       -0.07596868600573
C            4.08776413158051       -1.12872822418121        0.09910993944523
C            4.60836660107160       -1.77168421153754        1.22505525727006
C            4.41579676983476       -3.12440710947535        1.39753410196973
C            3.69585291979096       -3.87461555602061        0.46264237814373
C            3.48084164518180       -5.30727467439007        0.65887471639088
C            4.46292459959954       -6.13338247773251        1.20970076479333
C            4.20361610867582       -7.48167123834525        1.37138081984296
C            2.96778428976626       -7.97042291177101        0.97265892376513
N            2.02306786550561       -7.20122925311873        0.45655617782532
C            2.27124210926232       -5.91625461508742        0.30860149009922
C            3.17822178281209       -3.22101833127389       -0.65908314078885
C            3.36967383151772       -1.87019297719434       -0.84328886405597
C            0.91876182329045        1.91145225808640       -0.66939190769872
C           -0.42824672719830        1.73881988309637       -0.63789502034489
C           -3.37662883332288        1.38169698491794        0.14890174031098
C           -2.92108494173394        2.73214135194376        0.52404656016609
C           -2.07685826226042        2.89889645500746        1.61997651431018
C           -1.65571132952973        4.16005332081810        1.99538723192863
C           -2.06840844931743        5.27269091072826        1.28149985630342
C           -2.90492048582553        5.11656330890077        0.18871214322651
C           -3.33159230075827        3.85714316886341       -0.18706914554070
C           -4.74229690827276        1.10818691022953        0.07230716241500
C           -5.72538950447515        2.19101080406152        0.29439574916336
C           -5.76146146126524        2.87786012931275        1.50340575278383
C           -6.68649478744910        3.88420576721946        1.70888787470919
C           -7.58441909500715        4.21890370489228        0.70949765947836
C           -7.55452362537554        3.54029810161362       -0.49692439445122
C           -6.63277607740005        2.53110856149588       -0.70339732375605
C           -5.20247384455308       -0.18509313365333       -0.20738285099033
C           -6.64540870625381       -0.45817272031678       -0.31740580068447
C           -7.51901297525797       -0.13880231072781        0.71893827145522
C           -8.87039732658098       -0.40217039969584        0.60210924512019
C           -9.37055465531102       -0.98376252567753       -0.55092008097286
C           -8.50939862937885       -1.30524345606612       -1.58676316350042
C           -7.15693098345239       -1.04802176841005       -1.47096457729900
C           -5.63491965107239       -3.23084574678020        0.18699275243865
C           -6.02062292689153       -4.53651702908656       -0.05036297902452
H           -5.79077047383479       -6.25881678055984       -1.30263212316121
H           -4.12608877837554       -5.17867693578537       -2.76932234980122
H           -3.43883876906505       -2.85260049586227       -2.35036708043024
H           -2.21516149622760       -1.74731440182082       -0.46972562758386
H           -0.54925172391277       -1.24840226012195        0.97420500513421
H            1.84321066353037       -0.94175648864040        0.96757405340684
H            4.44016262602764        4.87738061347782       -0.79068781443706
H            6.08711724353054        6.74789910446058       -0.89550782436319
H            8.49266737252972        6.24087984279356       -0.65431851335469
H            9.26142615371424        3.96929729493520       -0.35963493463962
H            9.83122456085765        2.09938247417107       -0.39106130598439
H           10.55843831292224       -0.20800435850973       -0.25974061391898
H            8.89455644953929       -2.04111514103131       -0.17102828134387
H            6.51182920210647       -1.52120956087113       -0.14397039627476
H            5.14807839956517       -1.19494942781046        1.96230093900685
H            4.79843038854092       -3.60427213208069        2.28614041415844
H            5.42463073986726       -5.72371705508052        1.48486477186129
H            4.94705210873592       -8.14286264970381        1.78982606043483
H            2.71863166944013       -9.01875839000443        1.06838074775055
H            1.45542207558783       -5.32933734057635       -0.09388364142144
H            2.64296590245998       -3.78836396988168       -1.40534342294339
H            2.97232365174059       -1.37178961763110       -1.71483980744292
H            1.35849347862384        2.78586981068316       -1.12091494730284
H           -1.07014968250107        2.47903381750969       -1.08955132570634
H           -1.76168162607315        2.03206869310288        2.18333096171797
H           -1.00354117446263        4.27578099450938        2.84870805214861
H           -1.73853584378231        6.25821864984307        1.57513736214248
H           -3.22627519680649        5.98047066419572       -0.37469374395897
H           -3.97326632701188        3.73872496785604       -1.04801726161276
H           -5.06555449545147        2.61374191407634        2.28689811246898
H           -6.70680491192523        4.40903922746033        2.65296308258161
H           -8.30605308958768        5.00622249965726        0.87070715271948
H           -8.25251397896517        3.79745161537328       -1.28037560136331
H           -6.60746707864544        2.00548450811414       -1.64733571793288
H           -7.13176023369165        0.30357043672950        1.62528085148762
H           -9.53648939988835       -0.15342294033079        1.41550592984122
H          -10.42744372484021       -1.18701480286794       -0.64135604209099
H           -8.89349288469708       -1.75846647126856       -2.48911018353300
H           -6.48817459581766       -1.29271322724813       -2.28376401915770
H           -6.04789580717259       -2.69032524428687        1.02585461808322
H           -6.74332032995655       -5.00759522918460        0.59981682901718
