106
 energy: -162.392460839683 gnorm: 0.000076905929 xtb: 6.7.1 (edcfbbe)
C           -6.23599159747250        0.38574196523736       -5.17770196087253
C           -5.27873740546279        1.35081957898537       -4.91476520828531
C           -4.70231711390906        1.43277053160985       -3.66063012285321
C           -5.08280062960268        0.55625667301324       -2.64855462967191
C           -4.45669185648665        0.65161878138175       -1.31728346982661
C           -3.07790549499651        0.66612315170101       -1.22370507877018
C           -2.41889779916451        0.75514389894518        0.00691970058199
C           -0.97252790359386        0.82765836884778        0.04048643233254
C           -0.19147230098807        0.04212152136221       -0.83687539632614
C            1.17011133694866        0.03793205677976       -0.78285004524165
C            1.86756426942721        0.86707978047220        0.14681356336837
C            3.25399617512548        0.92835760125877        0.30348674303070
N            3.85761930017198        1.97226074049552        0.91531549729934
C            5.15688337228848        1.80326012295842        0.76882019430833
C            6.19862484629058        2.69073004458114        1.17210687623052
C            5.89636861183078        3.92375767092063        1.75259075808333
C            6.90492004801719        4.79881998499595        2.09353980555888
C            8.22359064805515        4.44258604099575        1.84300917285862
C            8.53200715909145        3.22099779586733        1.27642847732828
C            7.53565303406935        2.29983553598361        0.93312034605113
C            7.82757571628313        0.98580118938996        0.37892976571194
C            9.13742116602272        0.52490772774537        0.25425106845259
C            9.43466919006173       -0.73600825566060       -0.22376872001420
C            8.40448312544073       -1.60627154939101       -0.57772565434204
C            7.10200181181256       -1.19565146845021       -0.48062567020162
C            6.76998712197155        0.10278266235810       -0.02743967479198
C            5.45148068290819        0.56943146109448        0.09797596692800
N            4.22592606220265        0.02449322695545       -0.19626997932787
C            3.93944023877446       -1.20949341674698       -0.78476851514613
C            3.15087062569177       -2.13903006899877       -0.10174341455174
C            2.83919655173587       -3.34412733444008       -0.69035405900806
C            3.30276263908045       -3.66171234415082       -1.96978468557249
C            2.96964012406854       -4.94356333394357       -2.58911862550577
C            1.71679281958793       -5.53818851486004       -2.42385695032713
C            1.45658753865599       -6.75258827000428       -3.03105322679514
C            2.45675407184877       -7.33957881302208       -3.79282795447732
N            3.65072110012942       -6.79327718322858       -3.95543769423684
C            3.89696694266378       -5.63821246938374       -3.37220804229314
C            4.09290106319192       -2.72564885092475       -2.64388966435253
C            4.40544764639706       -1.51522421515696       -2.06607200998755
C            1.07316660342085        1.75109149749727        0.94390755531762
C           -0.28432173703680        1.71110075128334        0.90853962048416
C           -3.19751896075351        0.79378832829920        1.18398156453034
C           -2.54293153666795        0.79089446637805        2.50506356913766
C           -1.62124529509022       -0.20456706452686        2.82132209770803
C           -1.00896114249639       -0.22596482489607        4.05972431574788
C           -1.30552056543622        0.74696920973319        4.99943782672894
C           -2.21914459715414        1.74165108651286        4.69331067010355
C           -2.83629497591470        1.76361855972802        3.45705636698991
C           -4.58950117117929        0.76918772280489        1.09789452182691
C           -5.40405775408882        0.79885337967544        2.33211979632511
C           -5.26852333380503       -0.19912569161145        3.29160771340074
C           -6.03373405370605       -0.17225775152249        4.44233351911602
C           -6.94143906815647        0.85231414792310        4.65047425625394
C           -7.08221515210262        1.84942144999399        3.70029739420851
C           -6.32049167721905        1.82276207236966        2.54708614254366
C           -5.23045994795311        0.70850477618420       -0.14608510216220
C           -6.70137470113769        0.70984072918573       -0.22840561971582
C           -7.45738055486296       -0.24448976609403        0.44723368387350
C           -8.83644945461774       -0.23500825914954        0.36113837940299
C           -9.48106282144745        0.72857514142722       -0.39631846415445
C           -8.73743387718419        1.68181271816807       -1.07171244828677
C           -7.35807663473178        1.67184324353505       -0.99176760879243
C           -6.03894264402120       -0.41691386024420       -2.92498109597296
C           -6.60957825141743       -0.50032612493301       -4.18094691347285
H           -6.68767620264158        0.32282991240593       -6.15675894922314
H           -4.98132756581295        2.04330780522297       -5.68904922886416
H           -3.96329390427249        2.19398115777942       -3.45304282448832
H           -2.49397740582559        0.63571385579151       -2.13206198189337
H           -0.69186196504704       -0.60339541045253       -1.54480177751463
H            1.72177274340220       -0.56529889061332       -1.48489349924434
H            4.85727203995780        4.16469667703445        1.91359010778577
H            6.67483068784208        5.75327097935092        2.54231714408817
H            9.02168478953341        5.12642211460133        2.09353314533973
H            9.57095631030013        2.99444891429958        1.09772392113912
H            9.95893141661580        1.15751606103588        0.54986289060079
H           10.46339578408136       -1.05247319236956       -0.30595537916844
H            8.63270548990205       -2.60404837573517       -0.92174041422779
H            6.31139015504870       -1.88344440440145       -0.73038315860572
H            2.79405539631653       -1.90126394515933        0.88937066883238
H            2.25027192000988       -4.06470502327225       -0.14267630455794
H            0.95225514319494       -5.03934974608120       -1.84506403947901
H            0.49508292171923       -7.23115212095135       -2.92378756677875
H            2.30127091095876       -8.28479929099638       -4.29543245900591
H            4.89641150320570       -5.24847837497942       -3.51825363808206
H            4.43578306741978       -2.94076410459738       -3.64478628729977
H            4.99946450139337       -0.78822608923149       -2.60073961150593
H            1.59564295625529        2.43544385839813        1.59219972740493
H           -0.85593670873324        2.38798817913664        1.52477596580369
H           -1.39643649197717       -0.97005499075628        2.09197499487537
H           -0.29834072970266       -1.00530010519742        4.29405293199523
H           -0.82578693620643        0.73042940157210        5.96686266497662
H           -2.45155268238518        2.50539519513641        5.42105690572728
H           -3.53902000557521        2.54846626265803        3.21793732854446
H           -4.56507885629286       -1.00302625031443        3.12788933290461
H           -5.92124067309658       -0.95410436834326        5.17938416998053
H           -7.53790190698218        0.87329249358494        5.55068474542425
H           -7.78870104510375        2.65139861046672        3.85771325188248
H           -6.42789240427063        2.60472881996091        1.80894545677237
H           -6.95797994260628       -1.00488881187147        1.03001870922206
H           -9.41090716116626       -0.98389587286721        0.88683969645469
H          -10.55915477636926        0.73589896300841       -0.46091881518827
H           -9.23462131786139        2.43671477142924       -1.66339238920963
H           -6.78039100690998        2.42133792568010       -1.51362650479762
H           -6.32679423863560       -1.11630287056850       -2.15397203990854
H           -7.35011657109144       -1.26041850630585       -4.38307243583899
