106
 energy: -162.527681858155 gnorm: 0.000060723911 xtb: 6.7.1 (edcfbbe)
C           -1.71294000427211       -1.69702507952896       -1.02756893917061
C           -2.55444881557061       -0.57307650674599       -0.69105383701580
C           -3.93310238670441       -0.81249436811786       -0.40534009582031
C           -4.92728303038791        0.16377453652733       -0.63693249950600
C           -6.25407262097390       -0.09648499939279       -0.40295029608051
C           -6.66043549216007       -1.34445907105574        0.08014647184763
N           -8.01329751658301       -1.60577973681535        0.31720864391299
C           -8.88107347938655       -0.79518220791167        1.02326455085165
C           -8.63012405540822        0.38932513043455        1.70256969171450
C           -9.68496862252241        0.99318476567190        2.36048531862538
C          -10.96116185559874        0.43364807799748        2.35666999367886
C          -11.21120401964816       -0.75914055001593        1.70626650492015
C          -10.16697232799759       -1.38457279518866        1.03790277447212
C          -10.06173332522538       -2.61077222763492        0.29606907282992
C          -10.97411671480065       -3.59906427487742       -0.04902229789049
C          -10.54037666157175       -4.66113735324452       -0.81838020166334
C           -9.21983240264120       -4.73493912757204       -1.25707391470797
C           -8.29364563854454       -3.76398711987821       -0.92605116724810
C           -8.71605400247311       -2.70844409153918       -0.12933046562899
C           -5.69388124031060       -2.32831683808735        0.30899257786929
C           -4.36743256292513       -2.07147411552720        0.06542322214518
C           -2.00846367349634        0.75128958047451       -0.71344463293664
C           -0.92861784916106        1.07874134120577       -1.56261620783298
C           -0.36550544030155        2.33009387000512       -1.55551199284699
C           -0.83977737417126        3.31685058724873       -0.68637812425241
N           -0.24140193741472        4.57950822667643       -0.65486347763948
C            1.11637299049444        4.82403703601921       -0.57318710866407
C            2.17068915126262        3.92820907871022       -0.45864381633842
C            3.44959562524862        4.44342086796409       -0.36384563700161
C            3.68261226376704        5.81719332473386       -0.37136291656166
C            2.63572240470127        6.71436747485397       -0.45750115761102
C            1.34143375093224        6.22018630544523       -0.55370527681773
C            0.04843476487528        6.84253550459496       -0.63234164293500
C           -0.37424441354572        8.16455054280351       -0.67059602126378
C           -1.72725542936471        8.42455422128061       -0.77235903328258
C           -2.65196029968990        7.38547923704738       -0.85483109226206
C           -2.25516856006026        6.06196203967653       -0.82059598423422
C           -0.89933514761837        5.79380963796070       -0.68971797635722
C           -1.91015218131993        3.01419742923397        0.16135909923731
C           -2.48554874347152        1.76749923588117        0.14147529554678
C           -0.37538270865165       -1.84946743904875       -0.69811001757161
C            0.39365130553339       -2.90450845018149       -1.27812229026948
C            1.73364655546331       -3.01828446013135       -1.05689107444341
C            2.42459002842323       -2.11086660907795       -0.22408766236648
C            3.85915919222307       -2.19697303748227       -0.03215848235171
C            4.62029954467248       -1.04812161292822        0.23177424081837
C            5.98484384005367       -1.11444275276938        0.40008539571971
C            6.64554470902454       -2.33995314331565        0.31983555340632
N            8.03392245877898       -2.41019479996390        0.49137829422937
C            8.74712608105134       -1.86555763109377        1.54102360992699
C            8.28917279327550       -1.19289833832286        2.66566390175907
C            9.22466476315208       -0.77179080254312        3.59166457600155
C           10.58494217432999       -1.01809911993280        3.41534302884925
C           11.04453999901124       -1.70719006404082        2.31009471679965
C           10.12343887807857       -2.14061702104787        1.36519322644260
C           10.23738973738788       -2.88328022204401        0.14041733211451
C           11.31348735306645       -3.41213372934260       -0.56054395705699
C           11.07004827462515       -4.06874873980116       -1.75102287104059
C            9.77501364323787       -4.18676360980816       -2.25216494022795
C            8.68836057579262       -3.66967010435818       -1.57272988169883
C            8.92379939020935       -3.03041258915620       -0.36326717056579
C            5.90433318864764       -3.49340384583730        0.06448894145047
C            4.54070024525849       -3.42023445992784       -0.11200601046282
C            1.65920195414376       -1.11683496443647        0.42061622675193
C            0.31775379332727       -0.99200250020475        0.21123663773339
H           -2.17451241228480       -2.48881774154777       -1.60563863230013
H           -4.64101872982024        1.11471160617218       -1.06039951784150
H           -7.00092082499548        0.65221592159391       -0.62353308287326
H           -7.64155404769178        0.82185393763928        1.72808448024788
H           -9.51528710873457        1.91778642687861        2.89290264502343
H          -11.76076551849634        0.93777245315008        2.87951331066804
H          -12.19597186852612       -1.20197862851685        1.71934309462013
H          -12.00233131240049       -3.53169986923448        0.27391548322995
H          -11.23347698127228       -5.44190233938784       -1.09550235900507
H           -8.91389690455444       -5.56759535288237       -1.87368358366847
H           -7.27840339037462       -3.82166806488932       -1.28804723738247
H           -5.99842408168028       -3.28622016722812        0.70471495971263
H           -3.63069264828569       -2.83205094709119        0.27769229748771
H           -0.56616353512181        0.33696787659441       -2.25793927704551
H            0.43589346645087        2.56774428929314       -2.23938933179420
H            1.99852028699108        2.86321988762475       -0.43579634778184
H            4.28715665560973        3.76633086045115       -0.27895888907397
H            4.69698058653494        6.18128453300388       -0.29883286713795
H            2.81568866038897        7.77898935342880       -0.44494553642866
H            0.34323906538240        8.97027588470070       -0.62539105589114
H           -2.07660170817514        9.44629474401385       -0.79987880387640
H           -3.70217540658420        7.61958554328292       -0.95172875419912
H           -2.97844787206982        5.26526975208024       -0.90512699258066
H           -2.25756028056583        3.76059623472299        0.86065252451051
H           -3.27474668041332        1.53588229595205        0.84132162805618
H           -0.10649921976610       -3.59687658269127       -1.94107019546838
H            2.28706476119414       -3.79842584472928       -1.55880843153252
H            4.13563065965742       -0.08428769041200        0.26444748661444
H            6.55641927966797       -0.21414660313150        0.57216059168703
H            7.23602070624899       -1.01259769288076        2.82009232649490
H            8.89356348238672       -0.24357387631194        4.47404419575432
H           11.28543378058195       -0.67086689936331        4.16077149056210
H           12.09716959601524       -1.91143511531501        2.18206439494143
H           12.31896767427870       -3.30602290599952       -0.18121620597786
H           11.89299464684797       -4.48921162662668       -2.31038421785714
H            9.61735342756255       -4.69098333609093       -3.19458378161382
H            7.69097448976030       -3.75175260936001       -1.97754966796282
H            6.40695839996398       -4.44885844780074        0.02836500561311
H            3.98561422986773       -4.33135322008355       -0.27596637296419
H            2.14250133051908       -0.46350771219234        1.13286487838020
H           -0.24502348988493       -0.25257736891223        0.75961993659629
