106
 energy: -162.597810323689 gnorm: 0.000066101101 xtb: 6.7.1 (edcfbbe)
C           -1.60792670190904       -2.08292966345404       -0.24626236201870
C           -2.44090151982908       -1.03030337175094       -0.15260563659660
C           -3.89814317832461       -1.21852103234429       -0.13235330577851
C           -4.73889870681360       -0.30451627373167       -0.76901608189747
C           -6.10902557051056       -0.46721798787225       -0.75057926068951
C           -6.67589281347464       -1.55388612761173       -0.08938936782224
N           -8.06896424897287       -1.71929235623299       -0.05943143863961
C           -8.83262355546807       -1.92066985731944        1.07309639872241
C           -8.44541386800902       -1.95682968506996        2.40563660908323
C           -9.42738023182609       -2.14925307246309        3.35858760713915
C          -10.76745229732754       -2.29379537792942        3.00381827304197
C          -11.16181421023233       -2.23650035505470        1.68174687501593
C          -10.19277249320112       -2.04407322852438        0.70507260724335
C          -10.24094519286868       -1.91742080072543       -0.72497206538445
C          -11.27070078324769       -1.97102576028764       -1.65587288572992
C          -10.96153626241403       -1.83042340446797       -2.99427390537446
C           -9.64347032199170       -1.65082377312630       -3.41009062949299
C           -8.60212439184640       -1.59398053534651       -2.50351631683689
C           -8.90903558062848       -1.71309005129266       -1.15498756118057
C           -5.84651641199661       -2.47207868440284        0.54915662729604
C           -4.47700099592513       -2.30233728627842        0.52835622016113
C           -1.96544157294623        0.36446096555194       -0.11458341017076
C           -1.03368625178280        0.82764751952536       -1.04196322913773
C           -0.59259766060375        2.13452933306187       -1.00648005300915
C           -1.06759964477311        3.00742498007528       -0.03049866930703
N           -0.59336126266528        4.32693457630170        0.02670095135810
C            0.73506691461715        4.70125673424158        0.05818471472874
C            1.87557961029849        3.91029475744313        0.06934694882252
C            3.10128406418708        4.54531461778290        0.12931419591451
C            3.19875941264879        5.93448017233939        0.18629218866935
C            2.06731923182287        6.72578903122180        0.19657595476075
C            0.82305031453350        6.11066807664675        0.13628307771462
C           -0.52627907795655        6.60310072333957        0.14424515362924
C           -1.07992267862655        7.87651907687550        0.18601716955491
C           -2.45455915572147        8.00253870128046        0.15318207482444
C           -3.27515334266615        6.87932223645944        0.06689816513435
C           -2.74854263817171        5.60249735149051        0.02486281081223
C           -1.36806770212838        5.46807459119303        0.07922095856220
C           -2.01191189244324        2.55805390475217        0.88820118187906
C           -2.46352872034741        1.25413624149579        0.83517910664824
C           -0.15360302882796       -2.05308030157018       -0.18095123879954
C            0.59037935667442       -2.93794827189666       -0.96443375005990
C            1.96922302245325       -2.93707935680152       -0.92338236418196
C            2.65718036861523       -2.06337039513330       -0.08230995125137
C            4.12552575029694       -2.05370564453383       -0.04162788861583
C            4.82729250397462       -0.85134999328937        0.03506771062090
C            6.20716561686104       -0.83501249300337        0.07149753968464
C            6.92153584696001       -2.02889547418450        0.02688465678097
N            8.32497299685842       -2.01623553358803        0.05565558071565
C            9.12294245520983       -2.74623992170554        0.91324462314852
C            8.76094601314237       -3.59558867159965        1.94987007915804
C            9.77194570782226       -4.18930196240231        2.68118726063283
C           11.11468787450257       -3.94206946264191        2.40087803267715
C           11.48094210504290       -3.08073421823114        1.38573580193370
C           10.48263291589033       -2.47276405713516        0.63486276710114
C           10.49506841163305       -1.53458554345456       -0.45267629922702
C           11.51040469318843       -0.91543648111541       -1.17095229684532
C           11.16772944034546       -0.05886194087234       -2.19829087761992
C            9.83217918543171        0.17323049770505       -2.52224006958572
C            8.80468582011296       -0.43168941986334       -1.82384107221712
C            9.14222161868783       -1.27690960720528       -0.77566486935264
C            6.23105395855288       -3.23525572812932       -0.04907125229165
C            4.85090456856321       -3.24355578485308       -0.08107140038549
C            1.91457691402975       -1.20294367647866        0.72651612503244
C            0.53658330796135       -1.19780395805776        0.68060944158185
H           -2.03683312481358       -3.06528261830373       -0.40203240296953
H           -4.30976679945895        0.54056341493993       -1.28748386766698
H           -6.74955745613454        0.25394419584178       -1.23631777767096
H           -7.41231706784395       -1.82937209814141        2.69214090960982
H           -9.15090037832641       -2.18410369705336        4.40252469887315
H          -11.50537119058506       -2.44453122250906        3.77827589034219
H          -12.20209851666591       -2.33380139442377        1.40855897363001
H          -12.29043558515627       -2.12495871818649       -1.33537698446201
H          -11.74828772049568       -1.86784422344094       -3.73363510926317
H           -9.43081409353434       -1.55805436704496       -4.46536178190265
H           -7.58271443740914       -1.47036277978649       -2.83685493809236
H           -6.28239046098617       -3.32106405840528        1.05476058075948
H           -3.84706449724340       -3.01167808923756        1.04411501896518
H           -0.66307920164307        0.15734659267493       -1.80306467719409
H            0.11436206449746        2.49143658306113       -1.74070520088108
H            1.80734366134731        2.83349243541986        0.03955083739922
H            4.00491622364463        3.95302465174481        0.13568839893085
H            4.17543384093569        6.39408679783406        0.23011000232127
H            2.14383030810386        7.80145865027898        0.25428784610089
H           -0.44450619192651        8.74821794891549        0.23783214340241
H           -2.90479853222381        8.98395085453931        0.18615027170301
H           -4.34691180964394        7.01043551135378        0.02872014923271
H           -3.39252135145511        4.73985596727633       -0.05726468688796
H           -2.37880168732536        3.23061291389491        1.64931816109820
H           -3.19366550711796        0.91132203608120        1.55419274068684
H            0.07453854667937       -3.61817616830451       -1.62800646992119
H            2.52350254677812       -3.60856523349094       -1.56318212152451
H            4.28481392881940        0.08223111815874        0.05397675929242
H            6.74001216718691        0.10173374556847        0.14339742269351
H            7.72358409832041       -3.77993447949999        2.18600590263196
H            9.51587635736738       -4.85747052107090        3.49076678252199
H           11.87608086608049       -4.42707561775131        2.99426416681377
H           12.52136730416638       -2.87807176327351        1.17890079854872
H           12.54579978406766       -1.10616666867519       -0.93025733307553
H           11.94249740881004        0.43433671290427       -2.76711474202800
H            9.59500113713371        0.83821527870491       -3.34015173664734
H            7.77354975961099       -0.25893416448163       -2.09361593735314
H            6.78314984672555       -4.16246749112979       -0.09372415547704
H            4.32672582533001       -4.18687694671376       -0.12442069701543
H            2.42683746583864       -0.54875877585258        1.41742904709658
H           -0.01743056602325       -0.53960181816571        1.33301113711710
