144
 energy: -190.787641376447 gnorm: 0.000059998586 xtb: 6.7.1 (edcfbbe)
C           -2.98727666554605       -2.40646390843325        0.26008757990653
C           -3.75571511860561       -1.12392821408964        0.12762719141492
C           -5.14035088262264       -1.13460608540546        0.12546973440567
C           -5.85429185543696        0.04965240323825       -0.01511454361233
N           -7.25600327621782        0.03180228944763       -0.03129376754926
C           -8.04488587086679       -0.80725115525785       -0.79185349767730
C           -7.69194575357642       -1.76362934188827       -1.72925925347366
C           -8.70124430138454       -2.45841555993807       -2.37000083743471
C          -10.05582731081118       -2.22679965630781       -2.11521036079471
C          -11.16371235262922       -3.00302099531172       -2.81405052605751
C          -10.63111284992293       -4.05900426554076       -3.78654678129516
C          -12.03858813526238       -2.02322983124964       -3.60884400746917
C          -12.01603881745636       -3.71984315507058       -1.75700485919405
C          -10.39772477690757       -1.24394194017597       -1.19588599102666
C           -9.40707486176673       -0.53254752256813       -0.53847930339708
C           -9.43379131239985        0.53017098270696        0.42825765248938
C          -10.45997397814151        1.21110902051064        1.06291399659458
C          -10.16874215565688        2.20530833729264        1.98747288446151
C          -11.31525419970901        2.94743214511777        2.66061640077772
C          -10.83720498817290        4.02286867922326        3.64010229171443
C          -12.16850187270052        3.63343372036470        1.58403849139005
C          -12.17420289316397        1.94193685253106        3.44058139446980
C           -8.82780756792839        2.47903486726121        2.27109100388767
C           -7.78377519185637        1.81467711095297        1.65405123679835
C           -8.08643023949472        0.84660427280513        0.71108186695266
C           -5.16550096739472        1.25024032794705       -0.14099057068476
C           -3.78095443272532        1.27122410353697       -0.11839833533686
C           -3.03991926512761        2.57135587143440       -0.23479444715375
C           -3.05558548168357        0.08175115522868        0.00992391788510
B           -1.48814062266548        0.09549229900043        0.01928224881846
C           -0.71397877797518        0.12968706574180        1.36994644398065
C           -1.39303113093368        0.17349058565204        2.58904743849447
C           -0.71369353593395        0.18949445907738        3.79533116046179
C            0.67118986614722        0.15902048328270        3.80392518296411
C            1.36425466670608        0.11820822726234        2.60605227176743
C            0.69921199030383        0.10685570431634        1.37850966059630
B            1.48833197907966        0.07544613325900        0.03646784824633
C            3.05564799918081        0.05022196994146        0.04297538062581
C            3.78826611243478        1.23943718613249        0.12422654988559
C            3.05525461472611        2.54694433781575        0.20236380115284
C            5.17273265973948        1.21154134602073        0.13497420711865
C            5.85424180252790        0.00363301061212        0.04382087016380
N            7.25597718168375       -0.01909312059625        0.04204479211947
C            8.05413044945813       -0.83091958710923        0.82210638115185
C            7.71291549405890       -1.75371861595167        1.79675926279685
C            8.73014347144056       -2.42631289284804        2.44858765035732
C           10.08144527224296       -2.20446327420817        2.16888120417588
C           11.19801999482813       -2.95661497596631        2.88011846070547
C           12.03924549086481       -3.70692382839239        1.83748707686722
C           12.08071349368819       -1.95074237525077        3.63253811621873
C           10.67759985099182       -3.98080604426744        3.89239734640469
C           10.41185647660924       -1.25442014668500        1.21163402434603
C            9.41311671051458       -0.56617087531480        0.54199182794631
C            9.42793171709978        0.46097730894347       -0.46272786913323
C           10.44600124464631        1.11781571443259       -1.13483465425361
C           10.14302147917830        2.07709617712809       -2.09194626249962
C           11.28073387134327        2.79375018158261       -2.80634438275099
C           10.78998414887755        3.82996168039381       -3.82120408957869
C           12.13241179721737        1.75993763084715       -3.55668282149374
C           12.14489938960290        3.52172869014364       -1.76668167618048
C            8.79861179624061        2.34053157451425       -2.36877405444613
C            7.76253170313115        1.70002522055094       -1.71432701608455
C            8.07719033479200        0.76755871376113       -0.73993685881384
C            5.13308203126183       -1.18110273151059       -0.04629784214628
C            3.74846044666747       -1.16277427667872       -0.03645861045335
C            2.97210924988083       -2.44496909738712       -0.11551184364678
C            0.71432663280218        0.06777098649385       -1.31481893664449
C            1.39359373117369        0.05445767715714       -2.53454285263984
C            0.71424342327393        0.03520420683216       -3.74075728656255
C           -0.67094725502846        0.02665985158257       -3.74859371087366
C           -1.36417094543993        0.04216753351106       -2.55023328525758
C           -0.69901104025042        0.06659666696912       -1.32292182905396
H           -3.65809632356851       -3.25876593833106        0.33879726560840
H           -2.35130132687236       -2.37763324144598        1.14426231857877
H           -2.33925748637236       -2.54811948630661       -0.60455524846156
H           -5.67528623054263       -2.06538307599237        0.24587787400026
H           -6.65741152780158       -1.96058615188181       -1.96772839862588
H           -8.40962518268804       -3.20176838100434       -3.09356880894511
H          -10.01691142912640       -4.79297188341992       -3.26983311818807
H          -11.46761561769900       -4.58393908424640       -4.24416228277577
H          -10.04783278680459       -3.60110291038479       -4.58212225636141
H          -12.49795403760564       -1.28496289340024       -2.95754766400339
H          -11.43697353321442       -1.49744054305507       -4.34751343316101
H          -12.83050670240539       -2.56063773221842       -4.12685274791407
H          -12.47604312361311       -3.01264557887128       -1.07259459548451
H          -12.80691405959702       -4.29318624856480       -2.23665943912750
H          -11.39819574153808       -4.40195399958116       -1.17643320285963
H          -11.43115531945766       -1.01741530141201       -0.98222726935669
H          -11.48099676010680        0.95226217582230        0.82742153630200
H          -10.23574875148477        4.77432191035242        3.13361824623724
H          -10.25675134299519        3.58632475099633        4.44961559411013
H          -11.69948294220353        4.52240357890546        4.07788357822390
H          -12.98825857934983        4.18054719708839        2.04549756217013
H          -12.58985295310053        2.91014021499923        0.89162433424246
H          -11.56176965886292        4.33505896398223        1.01513026555612
H          -12.99273000258416        2.45496699879917        3.94167281816018
H          -11.57093594591336        1.43677428664288        4.19218246958667
H          -12.59711339520619        1.18833733935854        2.78217226884369
H           -8.57515837278458        3.23231318838582        2.99905890581145
H           -6.76126741879039        2.04389183707221        1.91454699955724
H           -5.71928832937063        2.16861755490872       -0.27104669003296
H           -2.37461094855106        2.55306513905929       -1.09731241675027
H           -3.72828541589181        3.40658056210555       -0.34050574712778
H           -2.42430194069835        2.73395794388877        0.64966833984129
H           -2.47452265357245        0.19411232866765        2.58617019404311
H           -1.26137169614228        0.22369224072271        4.72653752775296
H            1.20818971051779        0.16805774001091        4.74190884906663
H            2.44565844882345        0.09559937795346        2.61660546216290
H            3.74917930128008        3.38189856670368        0.26515697669321
H            2.42603779731078        2.67882807935272       -0.67759855758500
H            2.40408687043848        2.56517542223422        1.07563170257893
H            5.73257630018885        2.13082643195936        0.22720335561510
H            6.68142416930434       -1.94174707197172        2.05481514851359
H            8.44759732216824       -3.14393088240880        3.20116405411664
H           12.49302490353347       -3.02194880830784        1.12683248199993
H           12.83445599294898       -4.26584753584926        2.32689086563743
H           11.41515000206566       -4.40616355078780        1.28464759813340
H           11.48744981085928       -1.40332588756826        4.36219344460208
H           12.52978749787644       -1.23223917280928        2.95257119802399
H           12.88053289342819       -2.47013815834262        4.15674478023116
H           10.05765691173300       -4.73105793213821        3.40686391724816
H           11.51976767174332       -4.49061882294961        4.35666958087903
H           10.10361492922177       -3.49768298458442        4.67977123335783
H           11.44254330329982       -1.03593712629467        0.97733183486941
H           11.46995786538589        0.86771348111553       -0.90265735433936
H           11.64649085235031        4.31226143562948       -4.28863570443376
H           10.19414780052207        4.60048483118797       -3.33723574455800
H           10.20007007221963        3.36189879918438       -4.60589397868391
H           11.52144471279513        1.22537764399589       -4.28124458016972
H           12.56415622543684        1.03287267519702       -2.87461426674391
H           12.94428452408953        2.25426666202453       -4.08656998005493
H           12.57508574189647        2.82605463706133       -1.05175316043042
H           12.95852597466481        4.05166815113837       -2.25805825756767
H           11.54342763365006        4.24399902469053       -1.21838595734831
H            8.53671344109688        3.06616003947849       -3.12113598155524
H            6.73677946196138        1.91968581084973       -1.97027239789622
H            5.66198930630275       -2.11854627419964       -0.13830614748256
H            2.33418254675726       -2.55344748703435        0.76135815792981
H            2.32532038662111       -2.44306226930213       -0.99226675886830
H            3.63764315943706       -3.30309459910004       -0.17295454233884
H            2.47526654702475        0.05825485744120       -2.53222924363709
H            1.26214497713327        0.02508805138400       -4.67240134237029
H           -1.20806625496125        0.00872371140084       -4.68637671823094
H           -2.44578916596671        0.03643108180346       -2.56030663291628
