144
 energy: -190.730140400649 gnorm: 0.000055886341 xtb: 6.7.1 (edcfbbe)
C           -3.00560296470554       -1.51057175757006        1.92226708983574
C           -3.77614940350256       -0.70943553284557        0.91626823026676
C           -5.15883227716701       -0.72920896460321        0.92299621784137
C           -5.87869220248406        0.01810907700654       -0.00524188127368
N           -7.27746771988916       -0.00953086264915        0.00244688499576
C           -8.06248612308598       -1.14270233764448        0.05761180876804
C           -7.70267737710102       -2.48234624637587        0.05782945130901
C           -8.71098377399611       -3.42373390314158        0.08704782267881
C          -10.07050799046680       -3.08411214548526        0.10633376954975
C          -11.10503688196972       -4.19890723579872        0.14614759423610
C          -10.88705095516591       -5.04272631604556        1.41020980449330
C          -10.94501714325835       -5.07957238635729       -1.10131750403013
C          -12.54128057521250       -3.66870765170756        0.17219737383938
C          -10.41843174802058       -1.74218997026879        0.07609368664360
C           -9.42497059766660       -0.77417655990701        0.04748240188308
C           -9.45601055014531        0.66248375477301       -0.01077787195827
C          -10.49036375654911        1.58694775324232       -0.02369343097579
C          -10.20088633742120        2.94255853384108       -0.05870894456546
C          -11.28307100606269        4.01168744663640       -0.08074064629944
C          -12.69536857610751        3.42002732057187       -0.08169650047456
C          -11.13965495484085        4.89934615590176        1.16379240298172
C          -11.12375308181441        4.86319116266441       -1.34837031251054
C           -8.85702834699374        3.34013953846523       -0.06128593716119
C           -7.80887529921183        2.44286660355497       -0.04771854821042
C           -8.11075854789190        1.08902515186012       -0.04123403692456
C           -5.19652206432392        0.79039278531641       -0.94137806589652
C           -3.81375135034548        0.81477137498918       -0.95393784070001
C           -3.08282187978639        1.63900900735124       -1.97080854205503
C           -3.07691254805153        0.06298924045807       -0.02494833555781
B           -1.50957698696735        0.07834461909837       -0.03870351441344
C           -0.70639861588509        1.12053862352632        0.75376297477839
C           -1.38639452127901        2.09827757613931        1.50423480818201
C           -0.70002069524873        3.04618022342472        2.22226759362380
C            0.69683019312346        3.05038509659735        2.21768029429243
C            1.38414476673984        2.10605609773810        1.49586282126191
C            0.70510414192358        1.12338037631031        0.75096732211554
B            1.50941056132812        0.08179487928049       -0.04110806357201
C            3.07678756222384        0.07006566895745       -0.02916018309589
C            3.81086099769864        0.78253576903606       -0.99073686880824
C            3.07692217780064        1.56029265673405       -2.04149902227054
C            5.19367484652082        0.76171763470044       -0.97886320182182
C            5.87880183614588        0.03378295907097       -0.00985975018831
N            7.27758762103848        0.01201316264106       -0.00132383777956
C            8.10596692360077        1.11098003037009       -0.09811445983035
C            7.79798408560373        2.46161119737531       -0.16918529945072
C            8.84202660097703        3.36181920752713       -0.22789981338875
C           10.18765487979242        2.97077675092931       -0.20871742893276
C           11.26480836715212        4.04236605986434       -0.28653691685349
C           12.67982630897156        3.45775133212938       -0.26266308881364
C           11.09792433018326        4.82943579740523       -1.59422847421056
C           11.12071405860002        4.98979535489719        0.91302160922430
C           10.48329607145663        1.61984529222079       -0.10730559999349
C            9.45312936705297        0.69251638062760       -0.04770934246134
C            9.42859483995007       -0.73967657168586        0.08105911329284
C           10.42654400599632       -1.70034905916360        0.15878226743083
C           10.08489393548717       -3.04069836932217        0.25606335095398
C           11.12450575134037       -4.14706205908900        0.35497627949612
C           12.55822887774567       -3.60945587227954        0.35612397945256
C           10.97117503571507       -5.09204639198054       -0.84534402776540
C           10.90778172573050       -4.92518242243188        1.66075006385221
C            8.72701416030356       -3.38730645160217        0.25158593153498
C            7.71435543237834       -2.45332109371165        0.17439001966048
C            8.06780220776433       -1.11356485118505        0.10886010128487
C            5.16162408829138       -0.67412365308121        0.95082167307959
C            3.77889389120336       -0.65924450606945        0.94378995827394
C            3.01120729969842       -1.41779178237645        1.98439568937880
C            0.70619878274225       -0.95691236745939       -0.83836144059611
C            1.38627862166645       -1.93663768501963       -1.58620465823172
C            0.70001179664949       -2.88052315576213       -2.30958226597089
C           -0.69682408638426       -2.87948351935343       -2.31191759089441
C           -1.38414540970838       -1.93515984081197       -1.59010299484981
C           -0.70520425222338       -0.95726467195272       -0.83886341024691
H           -2.38327974849907       -2.24709317282157        1.41540573800540
H           -3.67273822562974       -2.02543692444827        2.60993829681913
H           -2.34187138779623       -0.86108927985825        2.49085118554946
H           -5.69216308791515       -1.30446376716040        1.66633067820848
H           -6.66748811734677       -2.78601358245875        0.02333337484178
H           -8.42604107321289       -4.46474319846259        0.09011241250311
H          -11.63066916716879       -5.83516350459158        1.46471811078648
H           -9.90195755939174       -5.50062314306318        1.41767953673037
H          -10.98010211928282       -4.42011016770020        2.29773137580984
H          -11.07502046191678       -4.48236210038473       -2.00153658411359
H           -9.96225150611489       -5.54103079540518       -1.13857624660799
H          -11.69239997229652       -5.87034342783766       -1.10023032557614
H          -12.76157619043702       -3.09052825225542       -0.72220345434215
H          -13.23577688319380       -4.50571273221328        0.20951762955112
H          -12.71396752359376       -3.05002512585885        1.04985252733931
H          -11.44804260748515       -1.42564430677566        0.06868265815650
H          -11.50517454449768        1.22643956210066       -0.00049045074681
H          -12.87464092194348        2.83305385513243        0.81613724216534
H          -12.85681077254104        2.79432001353010       -0.95650471679996
H          -13.42585399213743        4.22630304518008       -0.10621918542984
H          -11.92043673051350        5.65706668588544        1.17570742761265
H          -10.17727411992113        5.40289528347591        1.18404429273432
H          -11.22812063432305        4.29769951865835        2.06609803630298
H          -11.90122400058421        5.62329160212964       -1.38944299600327
H          -11.20615444233131        4.23663379433230       -2.23416340705897
H          -10.15927051438862        5.36246988244017       -1.37337515862787
H           -8.61711212404191        4.39242164231794       -0.06926537795101
H           -6.78724959278339        2.79069368800555       -0.02970614428392
H           -5.75826170183229        1.34831741061661       -1.67695969162696
H           -2.41986658007403        1.00691876316592       -2.55971179213410
H           -3.77566504320097        2.14528810773215       -2.63917058123555
H           -2.46336896740875        2.38386500526472       -1.47282603477843
H           -2.46822196380762        2.09506489145792        1.50995708592853
H           -1.23979559765887        3.78956257696810        2.79265524085129
H            1.23588791692376        3.79711943106376        2.78435205847916
H            2.46599113427691        2.10917391266838        1.49464438385632
H            3.76813603540623        2.05460792007355       -2.72042301519819
H            2.43000997931842        0.89810931391502       -2.61506979398492
H            2.44075104024915        2.31111245453733       -1.57464598570665
H            5.75315675617086        1.28763694286150       -1.73930087384641
H            6.77489044580657        2.80551275220712       -0.16594775953428
H            8.59732047786578        4.41140358562836       -0.28626632433209
H           12.84141344297897        2.78989847809607       -1.10570840023738
H           13.40649072834101        4.26505540465441       -0.32983555751644
H           12.86462120168889        2.91711671472655        0.66272383741537
H           10.13097048553769        5.32233092244916       -1.64104419295764
H           11.18092896970669        4.16024713609267       -2.44821865873379
H           11.87157935456141        5.59022938622943       -1.67513692648480
H           11.21397790648073        4.43383366557676        1.84369966170590
H           11.89828262196511        5.75040217279743        0.88539661311537
H           10.15625187524105        5.48975728764332        0.91095461332435
H           11.49976629722302        1.26546732224127       -0.06778956493297
H           11.45466802645755       -1.37967152586687        0.13664650113625
H           13.25652872818919       -4.44011484936317        0.43782981507476
H           12.72631460055448       -2.94549326107511        1.20096880219343
H           12.77759996319145       -3.07717123459601       -0.56654815324939
H           11.10064233255359       -4.54186881062941       -1.77512316514577
H            9.99055107574594       -5.55927231963499       -0.86060076081340
H           11.72200819842662       -5.87832847718898       -0.80158281250204
H            9.92502567264421       -5.38723189762489        1.68983339162571
H           11.65532440319675       -5.70978841911557        1.75805520930449
H           10.99542252610620       -4.25678487666893        2.51489880700435
H            8.44691808390132       -4.42821533998591        0.30600685563759
H            6.68072302665438       -2.76342548890321        0.15331626180680
H            5.69691026879122       -1.21407769181759        1.71879258957620
H            3.68049199335760       -1.92562750296391        2.67520371315119
H            2.37005144065334       -0.74010044476491        2.54614001309713
H            2.36614955065682       -2.15553275692038        1.50892901536663
H            2.46811930895235       -1.93799700970026       -1.58595639405715
H            1.23992303949736       -3.62467631449796       -2.87883004812009
H           -1.23588294846525       -3.62276285194267       -2.88312008225857
H           -2.46598346397745       -1.93517724283188       -1.59321822745114
