69
 energy: -101.052162211429 gnorm: 0.000045304329 xtb: 6.7.1 (edcfbbe)
C           -5.79497720050862       -4.37362796449713        0.67900145737730
C           -4.81059193743842       -3.25865683430390        0.49962433584903
C           -5.01423756961267       -2.26839728254988       -0.44987649886426
C           -4.12432012275685       -1.21767876436316       -0.60567373560407
C           -4.39612471350478       -0.18802518008495       -1.66360408511613
C           -2.97081013734968       -1.13778332329402        0.19401781666342
B           -1.92074128869827        0.00561478149279       -0.01428349520410
C           -0.42166405327860       -0.39533544196233       -0.23380771652685
C           -0.07622674865233       -1.57723094272779       -0.90067014387342
C            1.23938997721487       -1.93131122376470       -1.10745767005900
C            2.26497389210795       -1.11233885399048       -0.63176215237844
C            3.65615246860358       -1.48476332734100       -0.83860329178344
N            3.90803699876132       -2.62035451036358       -1.50206532128540
C            5.18182295245146       -2.89780063521013       -1.65382238036697
Cl           5.55699777600691       -4.33735717893240       -2.49321858713601
N            6.19923919969615       -2.18423026522713       -1.22784373586226
C            5.86310348554687       -1.06529718467335       -0.57502225096908
C            6.94191643141486       -0.22212473087087       -0.07181904542186
C            8.27099282546454       -0.59106869631999       -0.27730906276064
C            9.28993926006107        0.20900439071270        0.20141029021171
C            8.99381835045329        1.37810060854873        0.88573314626178
C            7.67363709906395        1.74883512826808        1.09200029096744
C            6.64869222239765        0.95466120838351        0.61669470298680
N            4.60849988672128       -0.68847734260627       -0.36396240127485
C            1.94265573522524        0.06621690717097        0.04346352210373
C            0.62259940895794        0.41586217293146        0.22719029449556
C           -2.28375755750357        1.52973702120392       -0.01473046211542
C           -1.88573165261701        2.36764429738856       -1.06688613754277
C           -1.16179124328401        1.82929685322741       -2.26931989916212
C           -2.17119994133672        3.72516976801318       -1.03359418941401
C           -2.84237858709692        4.29756854567008        0.03375790321839
C           -3.15117054066856        5.76317459060846        0.07010661370845
C           -3.23964446915821        3.46954767286612        1.07538808293931
C           -2.97986859729177        2.10983841901016        1.06143844081198
C           -3.42375146412847        1.27315300198246        2.22600408454872
C           -2.76796007976680       -2.14002217587198        1.15602575008701
C           -1.57568375338643       -2.11993551518071        2.07139507833644
C           -3.68156841388555       -3.17250277934987        1.29972399776191
H           -5.28777977006758       -5.29771888326259        0.94831692414754
H           -6.49313428873683       -4.12872518476860        1.48052367709802
H           -6.36867030718541       -4.53657086555263       -0.23038032544911
H           -5.89076700930244       -2.31603130610912       -1.08171422399446
H           -5.35550187697842       -0.37278748047464       -2.14132981158807
H           -4.40575013977494        0.81107208667697       -1.23356152609455
H           -3.62246060088184       -0.21057582401106       -2.42970691901780
H           -0.86569006337189       -2.21975443240688       -1.26518365777813
H            1.50041362636029       -2.84024740207335       -1.62679868227055
H            8.47979054193702       -1.50418494657446       -0.81192963453266
H           10.31919394096705       -0.07666128126708        0.04238823786101
H            9.79312239262555        2.00147104310512        1.25906671150723
H            7.44661582780363        2.66017030119210        1.62536011930608
H            5.61582682979435        1.22579949120726        0.76727188563222
H            2.74273215799125        0.69276701380126        0.40584086555131
H            0.38004509427748        1.33395883242315        0.74433171330277
H           -1.35925371439931        0.77178300720094       -2.41756412170367
H           -0.08591794281653        1.95597050996738       -2.14504369426721
H           -1.46028703775123        2.37195371405655       -3.16461650129880
H           -1.86040533572098        4.34763491901824       -1.86180066198932
H           -2.79272659300879        6.20557180905179        0.99855693810220
H           -4.22825038702849        5.92290423198169        0.02083108853562
H           -2.68701374304679        6.28049306981369       -0.76590210608474
H           -3.76896618748461        3.89959644004907        1.91489104525582
H           -4.03541047893701        0.43935038356541        1.88872589909862
H           -4.00105492431782        1.86942403175916        2.92883580080573
H           -2.56417772423651        0.86061682529067        2.75239975028735
H           -0.77742836698953       -2.73703118617934        1.65811105086205
H           -1.18694085749766       -1.11447325464783        2.20332478635340
H           -1.84053086231982       -2.52579010455148        3.04616612175906
H           -3.50789309811010       -3.92908777220321        2.05294570493007
