  69
       -101.05214099
 C         -6.2416197566       -4.6123155072        1.0500825093
 C         -5.3866352975       -3.4073520733        0.8021352616
 C         -5.6374177707       -2.5802460330       -0.2850592835
 C         -4.8685463410       -1.4568925744       -0.5353109252
 C         -5.1858497026       -0.6123066248       -1.7350473930
 C         -3.7900340582       -1.1304937975        0.3077925699
 B         -2.8712577569        0.1003884454        0.0005820252
 C         -1.3230192465       -0.1302837391       -0.0783863964
 C         -0.7919922777       -1.3411077897       -0.5400317065
 C          0.5678583684       -1.5491707052       -0.6199131546
 C          1.4516356751       -0.5458817702       -0.2183366647
 C          2.8884780487       -0.7645929714       -0.2865507941
 N          3.3206998417       -1.9393076922       -0.7625388972
 C          4.6258239484       -2.0731959580       -0.7942950227
 Cl         5.2292166360       -3.5550041255       -1.3931192142
 N          5.5178511023       -1.1871983538       -0.4134376289
 C          5.0050102327       -0.0410275679        0.0495481260
 C          5.9367108707        0.9892202732        0.4950378744
 C          7.3115613097        0.7684476096        0.4186983777
 C          8.1907358152        1.7449045939        0.8443344903
 C          7.7089208820        2.9439257803        1.3474008658
 C          6.3425993473        3.1676751606        1.4247969567
 C          5.4565440543        2.1967430982        1.0012362883
 N          3.7026847160        0.2016079859        0.1254034541
 C          0.9434582932        0.6665634439        0.2512539590
 C         -0.4186313070        0.8665557910        0.3086148320
 C         -3.4169094801        1.5501666175       -0.2336636122
 C         -3.0536049098        2.2864560032       -1.3708244172
 C         -2.1828474636        1.6978019957       -2.4456320638
 C         -3.5117011284        3.5845445316       -1.5461543840
 C         -4.3270056665        4.1972018423       -0.6094535179
 C         -4.8291620405        5.5950982635       -0.8052834871
 C         -4.6886306011        3.4699331544        0.5168957251
 C         -4.2563379824        2.1691291673        0.7106448197
 C         -4.6714612832        1.4432271363        1.9572775681
 C         -3.5402295827       -1.9660571393        1.4063118349
 C         -2.4296481598       -1.6795523466        2.3780654128
 C         -4.3354137470       -3.0790488790        1.6410481315
 H         -7.2848401459       -4.3201907229        1.1658409556
 H         -6.1815624719       -5.2991397839        0.2063401913
 H         -5.9253727371       -5.1372339076        1.9480260083
 H         -6.4578412950       -2.8196985808       -0.9479619996
 H         -6.0705919757       -0.9870530934       -2.2445692803
 H         -5.3624826332        0.4201048178       -1.4413906564
 H         -4.3560194096       -0.6177797731       -2.4399796736
 H         -1.4709473182       -2.1252711497       -0.8450987350
 H          0.9720715164       -2.4821470472       -0.9806874216
 H          7.6655894967       -0.1708917326        0.0243768387
 H          9.2554489629        1.5742863740        0.7849560929
 H          8.3992693495        3.7053344164        1.6799355067
 H          5.9707624597        4.1027360931        1.8172157423
 H          4.3906095042        2.3518703439        1.0535567549
 H          1.6350495015        1.4363106397        0.5566776422
 H         -0.8055811272        1.8104436995        0.6671569820
 H         -2.5089434634        2.0415617265       -3.4262121693
 H         -2.2017195087        0.6120080781       -2.4301244650
 H         -1.1497935124        2.0187199895       -2.3061881564
 H         -3.2235408942        4.1272657618       -2.4363250940
 H         -4.7015522626        6.1798343414        0.1041328318
 H         -5.8927711213        5.5810377907       -1.0447852653
 H         -4.3017110542        6.0886782430       -1.6178755803
 H         -5.3265430934        3.9322910181        1.2578062948
 H         -5.1610930715        0.5041359217        1.7091840722
 H         -5.3562287391        2.0504033956        2.5446726227
 H         -3.8043705078        1.2106181916        2.5736105477
 H         -1.5515661834       -2.2756609915        2.1270350503
 H         -2.1404891151       -0.6327084326        2.3624516427
 H         -2.7349175351       -1.9456281706        3.3890433211
 H         -4.1251873893       -3.7024647299        2.4996080004
