126
 energy: -201.951464455989 gnorm: 0.000058651809 xtb: 6.7.1 (edcfbbe)
C           -6.53369124912739        5.53047753993097       -1.57280936723237
C           -7.26545603492890        5.08651277119747       -0.30274487182283
C           -8.63391399231948        5.78337185480107       -0.26756012810711
C           -6.42750325927142        5.51999455387834        0.90963078276022
C           -7.47610170129368        3.58179680027219       -0.24411068756769
C           -7.05360102378852        2.71874726389358       -1.24874863666780
C           -7.25957141273340        1.35264602292382       -1.16047388639965
C           -7.89860838621146        0.81700546685064       -0.05253853368036
N           -8.07416974539966       -0.58077055466987        0.05794724429753
C           -7.05514118318652       -1.49761263947696        0.17395769869958
C           -5.63868436314128       -1.17151265452764        0.20588275955398
C           -5.13462282956039       -0.02859879573125        0.82562431567690
C           -3.77830441664275        0.22628704450047        0.82419150828477
C           -2.89230526187669       -0.65122796714471        0.20272380207700
C           -1.44879938546286       -0.36673537780386        0.18571023628250
C           -0.75488579294994        0.02048533172803        1.33247085383405
F           -1.40653265268833        0.11228554720884        2.50618580743909
C            0.60512026676795        0.28943696371654        1.31359570080026
F            1.20209756217243        0.62180803680397        2.47284898304917
C            1.36397953284314        0.19564166933014        0.14535858313975
C            2.80296133238492        0.49850506251418        0.12465001498842
C            3.69672727598067       -0.33175775211550       -0.54893111881090
C            5.04788561204020       -0.04982546465482       -0.56423626088656
C            5.54455290061030        1.07071040567918        0.10157096670811
C            6.94875692991421        1.43985028481408        0.13548937207557
N            7.33834862464948        2.68895864848472        0.26183830890712
C            8.69433314246231        2.66095215116840        0.26596533764882
C            9.59027062214507        3.76406402898297        0.35299491062358
C            9.11836591212814        5.07900835447798        0.42906973956164
C            9.99893255500396        6.13063947472844        0.48956869471820
C           11.36901615953902        5.87661384972881        0.47126743967699
C           11.84404211693799        4.58736268421621        0.40167674628758
C           10.97625811572280        3.48555354523944        0.34521750775514
C           11.44773190341869        2.11108122468444        0.29705042875223
C           12.81456138563974        1.80174633508489        0.35317963146560
C           13.27125138245512        0.50464421578813        0.34094255164994
C           12.36855737481601       -0.55243774674965        0.28328125825277
C           11.02134060560299       -0.29267262507293        0.22219659967460
C           10.53550641543178        1.02282937358577        0.21278754153273
C            9.14943860710972        1.34663589814541        0.15536906951084
N            8.01577176790517        0.57399821603686        0.05842866756613
C            7.92981158558031       -0.83104497066889       -0.07482897323213
C            7.44153797128970       -1.60357577036969        0.97100802444878
C            7.33510256058876       -2.97231668811087        0.81979800643662
C            7.70740016980238       -3.61039071171707       -0.36230321569074
C            7.55965554508636       -5.11936085167542       -0.47681000559027
C            8.03744692858237       -5.65904797114423       -1.82833263374914
C            6.07668065609950       -5.48370404726737       -0.31017601733149
C            8.38977055909697       -5.79105651003693        0.62732185876067
C            8.19605067795544       -2.81872476163303       -1.39672291521471
C            8.30491509462678       -1.44598886825821       -1.26258238569983
C            4.64173905847997        1.91590919143579        0.75380762069618
C            3.29391417183750        1.63450478656836        0.76995443595721
C            0.66897656582031       -0.19320170779038       -1.00119585448446
F            1.31574832078246       -0.27923871382250       -2.17816268474424
C           -0.69008148856806       -0.46700742941553       -0.98095625730657
F           -1.28895489689257       -0.80682771872618       -2.13711157858683
C           -3.39170394212911       -1.80701900802763       -0.39715464134034
C           -4.74511123572638       -2.06637525982307       -0.38637708918128
N           -7.50399106669304       -2.72887016061680        0.25147501005373
C           -8.85782518673489       -2.63630835754501        0.19189271352498
C           -9.81063799738222       -3.69039204786133        0.28046119076951
C           -9.41082389123233       -5.01774596569014        0.47009407548278
C          -10.34695495588015       -6.01514832554742        0.58761860421061
C          -11.70126027414160       -5.69292059778287        0.52254305661488
C          -12.10569845953320       -4.39226684999767        0.32950203648811
C          -11.17936826406965       -3.34644142959059        0.19347684119342
C          -11.57510499969674       -1.96821386178552       -0.04578578129766
C          -12.91865480129859       -1.61130617325323       -0.23177371243843
C          -13.30032359799121       -0.31706249693433       -0.49723991259065
C          -12.34189535013146        0.68626178612128       -0.60107147713866
C          -11.01534868737102        0.37987229839190       -0.42052374719272
C          -10.60695215928728       -0.92973966004930       -0.12934506923120
C           -9.24452934172250       -1.30331510473054        0.05243622864972
C           -8.32782308900519        1.66261753473658        0.96525749232782
C           -8.11910819998222        3.02283822311937        0.86019316978315
H           -6.40810454024822        6.61115984038815       -1.55749133797064
H           -5.54586532042675        5.07945311700580       -1.63460679058041
H           -7.10157365127393        5.27276733416204       -2.46387511348338
H           -9.17490406463618        5.55284096137918        0.64601520762118
H           -9.24048105428025        5.46592689729250       -1.11363021559561
H           -8.50377679295285        6.86193271348995       -0.32268204846400
H           -6.93474201554200        5.29972587298564        1.84475661050306
H           -6.24094490988922        6.59089145064665        0.86915185636301
H           -5.46975204889630        5.00314848245129        0.90967554288643
H           -6.55377124465804        3.09671618245780       -2.12460201282256
H           -6.92239580542268        0.69758928423743       -1.95076024686887
H           -5.79734789721520        0.65894240190905        1.32667671053520
H           -3.40579749598094        1.12038091784759        1.30025196396962
H            3.33618775444251       -1.21268678525410       -1.05734073842848
H            5.70897062271228       -0.70088056442940       -1.11247649192226
H            8.04997735299248        5.23283979043219        0.43311388487037
H            9.63742297414890        7.14686562783951        0.54676809285315
H           12.06690613372203        6.70059300597339        0.51242884437831
H           12.91220475874513        4.44055617643386        0.38753513358588
H           13.54129849119327        2.59533262670819        0.41574071833689
H           14.33227471042613        0.30699469504178        0.38563737671515
H           12.72320735258774       -1.57253789498893        0.29070572758371
H           10.32391624827430       -1.11385760137618        0.19189159795997
H            7.14512949536572       -1.12694982139001        1.89403057228286
H            6.95082546785273       -3.54706240672418        1.64771710278737
H            7.91459517484211       -6.73995064518926       -1.84821944597750
H            9.09048129612762       -5.43891690076816       -1.98854384906037
H            7.45494476355434       -5.24210538463216       -2.64670481950012
H            5.48091304620306       -5.00062142830662       -1.08230854920193
H            5.69673731045827       -5.17162139737337        0.65872782097027
H            5.94579774166486       -6.56006799038239       -0.39726521299876
H            8.04411004924479       -5.50527567200016        1.61676256904347
H            8.31574583732300       -6.87294759114085        0.54182096631321
H            9.43705368241455       -5.50937258171308        0.53623779616730
H            8.49779846692752       -3.25938169614777       -2.33203367823976
H            8.68461308098889       -0.84484675007885       -2.07653961368300
H            5.02588468398574        2.79624481825049        1.24450016411139
H            2.61457438751788        2.30489118605892        1.27342850623841
H           -2.71499785159664       -2.50866193806876       -0.86033528604426
H           -5.13656226724502       -2.96392280602574       -0.83909203194334
H           -8.35261040161719       -5.22320025996031        0.52659351208502
H          -10.04096224621202       -7.04046123409912        0.73545450440315
H          -12.44237647623173       -6.47275317548148        0.62426122534131
H          -13.16426419680416       -4.19029732640747        0.29029029241216
H          -13.68582685543235       -2.36664494742926       -0.17851434170464
H          -14.34544212245514       -0.08198864609763       -0.63624582733235
H          -12.63734487041911        1.70008243106422       -0.82765832930564
H          -10.27340416495529        1.15585185198089       -0.51863330250214
H           -8.82470462517654        1.24719782894724        1.83047545753801
H           -8.46413235757376        3.65419610754903        1.66399754028076
