  126
       -201.79842806
 C         -7.8722199696        6.3065561547       -1.5990691347
 C         -7.5171244245        5.6835511964       -0.2463722949
 C         -8.4379403307        6.2959725239        0.8187301356
 C         -6.0535280501        6.0214388343        0.0710941646
 C         -7.6804720298        4.1730351884       -0.2354318100
 C         -8.0729107116        3.4471650567       -1.3550355515
 C         -8.2012046943        2.0705364434       -1.3110666364
 C         -7.9388497245        1.3862912849       -0.1310792812
 N         -8.0554913310       -0.0186159470       -0.0780611631
 C         -7.0038644664       -0.9267181358       -0.0093183997
 C         -5.6112668624       -0.6346448014       -0.0366956384
 C         -5.0393854087        0.5937788419       -0.4298324583
 C         -3.6858668536        0.7804098786       -0.4054682116
 C         -2.7970218366       -0.2438235366       -0.0012389627
 C         -1.3806146406       -0.0365701403        0.0382764829
 C         -0.7776979661        1.2219973715        0.3057525512
 F         -1.5611157919        2.2834900472        0.6021669478
 C          0.5771647948        1.4131694708        0.3658084159
 F          1.0108755811        2.6457209121        0.7101601308
 C          1.5215115463        0.3726484809        0.1702229639
 C          2.9422704131        0.5515408013        0.2465769090
 C          3.7800032515       -0.4962725227        0.6914883945
 C          5.1407695915       -0.3714061586        0.7100213523
 C          5.7643343929        0.8123858380        0.2689932807
 C          7.1768466147        0.9993626651        0.1825726436
 N          7.7440866588        2.1973076931        0.1659228301
 C          9.0684455191        1.9896259764        0.0890846986
 C         10.1069980064        2.9615590168        0.0748924889
 C          9.8150565546        4.3271579406        0.1592541422
 C         10.8290962631        5.2542512068        0.1638654649
 C         12.1497191503        4.8202747622        0.0882702028
 C         12.4477246400        3.4776574454        0.0017255927
 C         11.4416323753        2.5020368112       -0.0136704832
 C         11.7226153808        1.0797304279       -0.1329409728
 C         13.0293362676        0.5988784631       -0.2751170619
 C         13.3038106649       -0.7423703379       -0.4234589903
 C         12.2665799498       -1.6696972358       -0.4505064488
 C         10.9702445869       -1.2426078782       -0.3065136819
 C         10.6694815259        0.1187173207       -0.1299027265
 C          9.3486059087        0.6088696977        0.0297864538
 N          8.1302404652       -0.0090068366        0.0986286479
 C          7.8408435235       -1.3863730097        0.0160162855
 C          8.1543046344       -2.2419402579        1.0672788364
 C          7.7998713216       -3.5736151629        0.9938837609
 C          7.1262038633       -4.0916517506       -0.1118202985
 C          6.7193386897       -5.5553274121       -0.1192289588
 C          5.7645594537       -5.8027203396        1.0576315814
 C          7.9719127920       -6.4305012150        0.0286221432
 C          6.0004262965       -5.9595781608       -1.4087268512
 C          6.8400947847       -3.2242264520       -1.1593709767
 C          7.1915062335       -1.8876422279       -1.1028923681
 C          4.9302295482        1.8914281093       -0.0970706197
 C          3.5699176220        1.7678643206       -0.1101380135
 C          0.9201598930       -0.8810607120       -0.1166108226
 F          1.7051409789       -1.9364611340       -0.4330879746
 C         -0.4334306292       -1.0726143720       -0.1792125281
 F         -0.8615984675       -2.2989665380       -0.5519782919
 C         -3.3743335226       -1.4874552692        0.3552467131
 C         -4.7247532984       -1.6729221612        0.3368440924
 N         -7.4584375140       -2.1730093703        0.0831253373
 C         -8.7951877467       -2.0959737634        0.0615548138
 C         -9.7338108581       -3.1644608384        0.1060188422
 C         -9.3057008452       -4.4946788654        0.1647415098
 C        -10.2224870346       -5.5182023180        0.1881742889
 C        -11.5808147221       -5.2168748127        0.1490308474
 C        -12.0127547069       -3.9092405589        0.0935436350
 C        -11.1093509170       -2.8379587166        0.0748826905
 C        -11.5335209116       -1.4468353754        0.0417638001
 C        -12.8871286808       -1.0927199867        0.0643541309
 C        -13.3009485005        0.2207470549        0.0648807262
 C        -12.3631275229        1.2491269007        0.0540019138
 C        -11.0248793813        0.9476068971        0.0245624975
 C        -10.5801186077       -0.3861279830        0.0045833311
 C         -9.2110729425       -0.7499845657       -0.0263024795
 C         -7.5482840646        2.0936500403        0.9993748385
 C         -7.4216003520        3.4665123858        0.9377592716
 H         -7.7470307622        7.3856744623       -1.5430715713
 H         -7.2194121889        5.9357114469       -2.3857675807
 H         -8.9068653665        6.1027156635       -1.8656695028
 H         -8.1837699319        5.9457952667        1.8150748094
 H         -9.4745318031        6.0328113025        0.6176515884
 H         -8.3495413577        7.3798851364        0.8082576791
 H         -5.7629655754        5.6504435419        1.0497932362
 H         -5.9075193756        7.0990619246        0.0575966551
 H         -5.3939633119        5.5749223828       -0.6700172870
 H         -8.2821608577        3.9450068815       -2.2869939603
 H         -8.5048575899        1.5205743673       -2.1900370790
 H         -5.6630214589        1.3931458355       -0.7921901452
 H         -3.2889856809        1.7217899938       -0.7475737512
 H          3.3387459557       -1.4051174467        1.0660680027
 H          5.7285094243       -1.1816196315        1.1069321538
 H          8.7779071590        4.6171387642        0.2236517415
 H         10.6085415920        6.3089758966        0.2285406196
 H         12.9523946686        5.5430991976        0.0965143920
 H         13.4860370412        3.1917500470       -0.0535667351
 H         13.8579879000        1.2883210663       -0.2769311903
 H         14.3261179985       -1.0730890087       -0.5294243999
 H         12.4785544902       -2.7195845945       -0.5860078634
 H         10.1672009260       -1.9606604983       -0.3407760519
 H          8.6637517064       -1.8547489256        1.9379771006
 H          8.0457900217       -4.2137086705        1.8268555479
 H          5.4391630672       -6.8404595486        1.0625969165
 H          4.8863350779       -5.1668681665        0.9673136955
 H          6.2433272254       -5.5917017375        2.0098619296
 H          8.4896613423       -6.2321382307        0.9628517126
 H          8.6615691011       -6.2422934588       -0.7917182641
 H          7.6950659140       -7.4821125487        0.0112987919
 H          6.6397264080       -5.8152797794       -2.2766130767
 H          5.7356751948       -7.0134954951       -1.3590443268
 H          5.0833471920       -5.3903720738       -1.5395898910
 H          6.3270884163       -3.5749328136       -2.0383683971
 H          6.9477154222       -1.2240336992       -1.9190436710
 H          5.4035080832        2.8116666980       -0.4002541717
 H          2.9708088937        2.5995301799       -0.4413248899
 H         -2.7411785317       -2.2929215139        0.6873235764
 H         -5.1558537465       -2.6162730371        0.6308616242
 H         -8.2434091211       -4.6816987091        0.1864615336
 H         -9.8965009791       -6.5462502441        0.2340750933
 H        -12.3074347130       -6.0159200211        0.1616481036
 H        -13.0752712090       -3.7278894342        0.0621370061
 H        -13.6426632787       -1.8612130067        0.0896710783
 H        -14.3553028276        0.4522755054        0.0829460294
 H        -12.6854739866        2.2793247864        0.0717963918
 H        -10.3009192691        1.7456758111        0.0280145304
 H         -7.3384917390        1.5615280085        1.9151639152
 H         -7.1119399464        3.9907882256        1.8278097511
