126
 energy: -201.877165902855 gnorm: 0.000048136114 xtb: 6.7.1 (edcfbbe)
C           -7.71489959164190        6.31340031493671       -1.86126153704534
C           -7.56353203508251        5.77828047997742       -0.43414831568433
C           -8.61179352835191        6.46762567375535        0.45203943609299
C           -6.15093120360075        6.12464383717659        0.06056820496381
C           -7.75590055919147        4.27275337932752       -0.34895435043745
C           -8.04548155675880        3.48412138100501       -1.45794775232252
C           -8.19908760465745        2.11320247803772       -1.34677930347413
C           -8.06363911629133        1.49875039822550       -0.10860001374911
N           -8.20603396766470        0.09465149798306        0.01087652409518
C           -7.18229142921574       -0.84466118915781        0.06503109496399
C           -5.77807289509592       -0.60581042787102       -0.00580638274500
C           -5.16906762037996        0.61977675979074       -0.34388094992602
C           -3.80792996631676        0.75158540666806       -0.36278863810850
C           -2.94769265852265       -0.32922279249058       -0.05978476799764
C           -1.52182901306566       -0.17486143606499       -0.06697606022520
C           -0.86205358590090        1.03926592365160        0.26114745343072
F           -1.59277855764116        2.10164307220916        0.68262013433536
C            0.49797231670243        1.18826816354632        0.26235233637665
F            0.97996783757647        2.38355869101929        0.68404026282830
C            1.40408080294339        0.14540473227528       -0.06507171203373
C            2.83070475040663        0.29853536115262       -0.05682786908401
C            3.68642742139887       -0.78253300662334        0.25612836201493
C            5.04761394657065       -0.64587504160705        0.27047779492069
C            5.65847256922931        0.58544818507601       -0.03890674591366
C            7.06407642191027        0.83326047443477       -0.04344375309141
N            7.55373089319850        2.06870221729177       -0.05984651984687
C            8.89005750564970        1.95127098310242       -0.03381480951793
C            9.85852444559788        2.99312828310423       -0.00388852251679
C            9.47074371869753        4.33786829756911        0.01016879357832
C           10.41738828043300        5.33315915408625        0.06185979072717
C           11.76579381040815        4.98904901740536        0.10337556950230
C           12.15839050909701        3.66746366050117        0.08710344954162
C           11.22381821862845        2.62463871332265        0.02817488070250
C           11.60691098771012        1.22084867028199       -0.01010371234183
C           12.95059101450248        0.82909757361724       -0.02752602304090
C           13.32693779433812       -0.49506167366950       -0.08488047563119
C           12.36047460299644       -1.49508953445806       -0.13819761589250
C           11.03043180974800       -1.15540530297160       -0.11920941522609
C           10.62343052203927        0.18841420345620       -0.04538527278053
C            9.26355715521458        0.59103760788500       -0.02062342073116
N            8.08593635358843       -0.10765467961492       -0.02074093877069
C            7.93857624136925       -1.51569537273137       -0.04063312763039
C            8.10555162663925       -2.25381445530184        1.12678114247952
C            7.96177534943299       -3.62636458584946        1.09423011242293
C            7.65111739069903       -4.30224724154617       -0.08589868541705
C            7.50652670538357       -5.81540880365033       -0.06354540520419
C            6.37429964467785       -6.19250185612811        0.90368914598487
C            8.82913006569317       -6.43574970463934        0.41190307103055
C            7.17276763891596       -6.39617081778448       -1.44081233247209
C            7.48746451498642       -3.54435443642838       -1.24024042386829
C            7.62865572815484       -2.16735578521511       -1.22541586655532
C            4.80641096429891        1.67388515758872       -0.33662769028338
C            3.44811510209899        1.53836747062109       -0.34748615430850
C            0.74437593928351       -1.06767455806024       -0.39658980656712
F            1.47595987920509       -2.12921386447863       -0.81916122361020
C           -0.61565006267953       -1.21723493613723       -0.39646285711151
F           -1.09904934954091       -2.41225442800255       -0.81759236851977
C           -3.56238997780379       -1.56679858781286        0.24762622980347
C           -4.92063172595804       -1.69608483250347        0.27544199863054
N           -7.67236433593921       -2.07323628114313        0.20670780329385
C           -9.00725439069611       -1.95311090960957        0.23966383194599
C           -9.97561680081015       -2.98827355353444        0.36338796663806
C           -9.58847140836903       -4.33015423316468        0.45453917893276
C          -10.53559839926723       -5.32069593190740        0.56134372423279
C          -11.88396858788770       -4.97457194438442        0.57712232330765
C          -12.27578461536382       -3.65533775350154        0.49116692281856
C          -11.34041955123323       -2.61711599930540        0.38319206106713
C          -11.72184502232114       -1.21476123923309        0.30045337490552
C          -13.06290085962736       -0.81686000906703        0.34816417465951
C          -13.43675244989874        0.50786038604788        0.28597468428890
C          -12.46998017943136        1.50325341879440        0.17731048808162
C          -11.14254851925016        1.15726325939194        0.12414699770587
C          -10.73853809536067       -0.18861304193701        0.17669009832428
C           -9.38153628463571       -0.59705057933451        0.12758603481287
C           -7.78613458321493        2.26898568724107        1.01427837292495
C           -7.63614503953000        3.63561955970093        0.88555835789443
H           -7.56317118315810        7.39074358455322       -1.85929468141386
H           -6.97440041727950        5.87328793805250       -2.52534200201453
H           -8.71064521594890        6.11676707922010       -2.25207966506380
H           -8.51010767788990        6.17171692926608        1.49238990895276
H           -9.61539197270468        6.21035033262150        0.11886659532914
H           -8.49547736071329        7.54748109691420        0.39312005035159
H           -6.00659238421888        5.83163958879563        1.09668872740964
H           -5.98200508842999        7.19646866865597       -0.01590554595347
H           -5.40290512647390        5.61433416394106       -0.54334520120223
H           -8.15215075433989        3.92600097819859       -2.43424634472315
H           -8.41885667411452        1.51390751231103       -2.21857830582655
H           -5.76964758507627        1.47003037965379       -0.61852834932406
H           -3.38647494095741        1.69932663278388       -0.65723288173197
H            3.26124982136094       -1.73305427299890        0.53586309324790
H            5.64604176898360       -1.49412208503690        0.55766317739391
H            8.41472194798158        4.55864259189941       -0.01545634572419
H           10.12131160862251        6.37139329936319        0.07334955466195
H           12.51530931118202        5.76564707094195        0.14905879249859
H           13.21412216622012        3.45278836118550        0.12321938077218
H           13.72721223981216        1.57559515154550       -0.00087651287834
H           14.37485504066075       -0.75545568001912       -0.09579379774244
H           12.65274262598538       -2.53278983500651       -0.19562379218333
H           10.28379032153306       -1.93029136541017       -0.16856858854976
H            8.34604363293098       -1.74613943974822        2.04976267998089
H            8.09456369336398       -4.17430535079367        2.01378333079558
H            6.24140200311401       -7.27201747553420        0.91778424394550
H            5.43892548891824       -5.73537554651102        0.58610231767871
H            6.58813591442290       -5.86359718534421        1.91690061570980
H            9.08234874433551       -6.11297818510502        1.41785594542392
H            9.64044469611665       -6.14961179986735       -0.25465783807410
H            8.75074613851983       -7.52060753995880        0.41313152726804
H            7.95781724378714       -6.17609386928154       -2.16075321184420
H            7.08293758349458       -7.47773840769777       -1.36373344735266
H            6.22658865067908       -6.00829601622275       -1.81139891102199
H            7.24570298928270       -4.01556769944056       -2.17783035819452
H            7.49564165685621       -1.59409123192243       -2.13121666794406
H            5.26489941472183        2.62038790630556       -0.57539682809010
H            2.84067955337786        2.38689279900414       -0.61753171607417
H           -2.95118580014617       -2.41684465521636        0.50426239987172
H           -5.37630547782312       -2.63859922769766        0.53416700457614
H           -8.53279334449330       -4.55309002292592        0.43489388379148
H          -10.23993513343215       -6.35679294006778        0.63042192384684
H          -12.63416991950486       -5.74761402916311        0.65812603583754
H          -13.33169273884585       -3.43922097176460        0.50728367516919
H          -13.83939106175259       -1.55831554845962        0.43992323626488
H          -14.48277395750006        0.77296171254341        0.32578903927018
H          -12.76016280545407        2.54233017406793        0.13680608091302
H          -10.39485651159685        1.92881050553573        0.04593000830563
H           -7.68294899863993        1.79141754501433        1.97758984147836
H           -7.41686473358550        4.20893362535688        1.77233224650098
