126
 energy: -201.951782299947 gnorm: 0.000060190364 xtb: 6.7.1 (edcfbbe)
C           -6.09489348460663        5.82508819830493       -1.84444479392078
C           -7.04320686931475        4.96774837709824       -2.69610731969302
C           -6.40008047389909        4.76548247773484       -4.07139371637330
C           -8.37722173174040        5.70330172667787       -2.89361443977081
C           -7.30660423413060        3.65603815115682       -1.97363662428350
C           -6.99151459390553        2.41627526015642       -2.51816888123953
C           -7.24773151555446        1.24100559692138       -1.83276576983348
C           -7.83070644665453        1.28398705144392       -0.57537249267611
N           -8.07175652891143        0.08499948897143        0.13475413189025
C           -7.10540440847889       -0.73968282588833        0.66355193329785
C           -5.67269627463291       -0.50453419175254        0.63347446996714
C           -5.09396060748423        0.76432259498960        0.60787913787899
C           -3.72121969138885        0.90769029548665        0.60102517342411
C           -2.88841371870180       -0.20914352829988        0.62211182769216
C           -1.42583352149737       -0.05494438852965        0.61348895368630
C           -0.77087861552969        0.86405640907188        1.43493794598221
F           -1.48383480042989        1.62807641480271        2.28269367934276
C            0.60898112332748        1.00078040664947        1.43364463881409
F            1.16077047897575        1.88963814286010        2.27934624686911
C            1.42901237164272        0.22568300485102        0.61272303095385
C            2.89348590000223        0.36128118420594        0.61401472899731
C            3.70411367769602       -0.77069744396693        0.66888215995024
C            5.07895201682065       -0.65434702809374        0.66046091756988
C            5.68213688874236        0.60075414764368        0.57762893159353
C            7.12014837313999        0.80364601589548        0.55790678480772
N            7.68169817944137        1.89318775778619        1.03188639213616
C            9.01704014450367        1.73502649005135        0.85231909820337
C           10.05964335435426        2.63162682295231        1.22133005227174
C            9.78173797109547        3.84544256121652        1.85941966033862
C           10.80209254231234        4.69013138136910        2.22044154483393
C           12.11932639411019        4.32664545684316        1.94677264027896
C           12.40393635416888        3.13683211386388        1.31750483505380
C           11.38876768338877        2.24842247784036        0.92920617954094
C           11.65676687023687        0.99479083533865        0.24334359903815
C           12.96180603795337        0.60668738327135       -0.09352251144737
C           13.22539065350292       -0.56180747176856       -0.76898405765112
C           12.18080039827980       -1.39659196085824       -1.15325580413684
C           10.88825665774722       -1.05668579756443       -0.83689069681954
C           10.59946831398286        0.11891248100472       -0.12869647933292
C            9.27895573405088        0.51281430985321        0.23220042223338
N            8.05017688069214       -0.07992657888689        0.05945953398295
C            7.75289082622616       -1.31742358348993       -0.55693875412522
C            8.06260388389195       -2.51514639801331        0.07938372122937
C            7.73427861169858       -3.71415509227826       -0.52051595472842
C            7.09025374626096       -3.76206182731852       -1.75696658525410
C            6.74185588731195       -5.11108236397636       -2.36544353599865
C            6.04973290584597       -4.98334933759132       -3.72567577249311
C            5.79372147890398       -5.85431562718287       -1.41221873510904
C            8.03206516286756       -5.92227575817320       -2.55744974740568
C            6.79084090467260       -2.55365063225956       -2.37555316661188
C            7.11534369099025       -1.34291958801068       -1.78797309488412
C            4.86596260948451        1.73512685852251        0.54710611510885
C            3.49336579612188        1.61990692650606        0.56779751124568
C            0.77424220362410       -0.69129106557725       -0.21083111941127
F            1.48902314135447       -1.45517829661570       -1.05789684655191
C           -0.60534859269250       -0.82653136627660       -0.21102867265618
F           -1.15692363711680       -1.71231136252553       -1.06095490336062
C           -3.46432485269460       -1.47944731042702        0.66640695256298
C           -4.83397867608439       -1.62207308412397        0.67764543013965
N           -7.62544516149113       -1.80639059681218        1.22887822311633
C           -8.96885694133181       -1.69205219304992        1.08113938541762
C           -9.97714802656817       -2.58239170716509        1.54763253892655
C           -9.64938895518178       -3.74349588204397        2.25615342157066
C          -10.63698405145605       -4.58145124637252        2.71152142598890
C          -11.97096972801550       -4.26318698956081        2.46399309348042
C          -12.30459169894991       -3.12503231132953        1.76688911099549
C          -11.32398651334555       -2.24728455695678        1.27857725548547
C          -11.64387753900726       -1.05272763861123        0.51391477253659
C          -12.96784624027657       -0.71940864274458        0.19277962129493
C          -13.28026746219038        0.38674196294135       -0.56217275352864
C          -12.26845729046863        1.21026188191079       -1.04555721072370
C          -10.95886854654298        0.92414184502623       -0.74655263854285
C          -10.62006767294809       -0.18552230673844        0.04128614668343
C           -9.27976852813917       -0.52247869905795        0.38675991813654
C           -8.15013594318421        2.51419414868435       -0.00970994103784
C           -7.89045800830199        3.67683077768712       -0.70689519075100
H           -5.87984037383621        6.76103207128140       -2.35535571815092
H           -6.52932317831638        6.05942188038728       -0.87662786107143
H           -5.15650887529159        5.29891509440759       -1.67997425812680
H           -7.04552903876063        4.18314975687227       -4.72506666670909
H           -5.43589887472007        4.26968745005874       -3.98502709137972
H           -6.23743515048353        5.73439863350346       -4.53899596252669
H           -9.06351140713757        5.08926366525346       -3.47369412586699
H           -8.21235581426556        6.63548174329629       -3.42939301827859
H           -8.84833421221430        5.93696367294103       -1.94291090451656
H           -6.53928985748671        2.34221926419619       -3.49276168409993
H           -6.99419206735088        0.28637487994841       -2.27049527913640
H           -5.70936378323577        1.64917562988236        0.61083061060990
H           -3.29393755022730        1.89819129521102        0.56993618040632
H            3.25636708043012       -1.75013060056496        0.74025145454766
H            5.67729214717379       -1.54747474393698        0.73667593722649
H            8.74855289445926        4.08666310420311        2.05807881014300
H           10.59039406824153        5.62717409786900        2.71429398381243
H           12.92682570799433        4.98579270385393        2.23167075391435
H           13.43831584846624        2.89853420346486        1.12768618152721
H           13.79410653159256        1.23653033777244        0.17543764822838
H           14.24473892049767       -0.82624683469248       -1.00931256844713
H           12.38314002172341       -2.30620241693231       -1.69928805194045
H           10.08014435577520       -1.69930724843283       -1.14638000993867
H            8.55885550983339       -2.49675370191164        1.03934011470264
H            7.98544170514234       -4.62738046044322       -0.00404228041871
H            5.82780441438374       -5.97613639362381       -4.11165473680328
H            6.69027755036186       -4.47989615589032       -4.44632704315183
H            5.11109278582712       -4.44068665943338       -3.63911385102822
H            4.88807353298647       -5.27207970512103       -1.25283191652805
H            6.25927317641123       -6.03428754184993       -0.44712847708990
H            5.51446613722923       -6.81493686819116       -1.83937096647038
H            8.53231062908165       -6.10660607932861       -1.61084889385587
H            7.80271960551084       -6.88307640654753       -3.01297764137785
H            8.71989916533302       -5.38734502672443       -3.20954188097298
H            6.29480318702120       -2.53294011118128       -3.33114945267402
H            6.87067538196124       -0.41306601938534       -2.28063928299432
H            5.33594937391107        2.70503225592399        0.50588559758859
H            2.88148106788494        2.50787234107646        0.52798671599365
H           -2.83559553440220       -2.35548067124591        0.70813903419410
H           -5.28493685432104       -2.60074611151288        0.72366361994065
H           -8.60467111360007       -3.94987773014342        2.43224044240311
H          -10.38687683269728       -5.47835852769134        3.25902607561712
H          -12.75289188677166       -4.91667296545325        2.82358495936026
H          -13.35025635072726       -2.92004465203220        1.60152264577206
H          -13.77610890566790       -1.34451958729215        0.53597784559548
H          -14.31267371842759        0.60990675167526       -0.78822259560603
H          -12.50956727406747        2.06933334229685       -1.65415363512844
H          -10.17663510871766        1.55754314645805       -1.13204732240120
H           -8.60277078832339        2.54947619469794        0.97103264315318
H           -8.14994809159808        4.61629104714722       -0.24449101162780
