  74
       -123.03293635
 N         -3.3630769641       -5.4088010750       -0.3003704893
 C         -2.4082795891       -4.7867186193       -0.1621888042
 C         -1.1928810620       -4.0848060276       -0.0352971059
 C          0.0009815496       -4.8125147814       -0.0254037936
 C          1.2058054410       -4.1448198163        0.0052446339
 C          1.1979273853       -2.7440646273       -0.0115320323
 C          2.4216926196       -1.9404402031       -0.0462308075
 C          2.3680611579       -0.6061521957        0.3634643262
 C          3.4930592602        0.1882405102        0.3344505164
 C          4.7054597754       -0.3319002327       -0.1153174527
 N          5.8552041599        0.4796185471       -0.1573540403
 C          5.8871905837        1.6214863047       -0.9636429512
 C          4.8366678405        1.9660285030       -1.8049244231
 C          4.9029231952        3.1033768523       -2.5952518431
 C          6.0231065292        3.9087046468       -2.5671813152
 C          7.0946295028        3.5598974913       -1.7586946140
 C          7.0348889236        2.4251634174       -0.9712298064
 O          8.1486114556        2.1265709453       -0.2269087958
 C          8.1115943026        0.9889962786        0.5397106472
 C          9.2431769233        0.6959101376        1.2777630672
 C          9.2715369682       -0.4170231371        2.1049194325
 C          8.1534091309       -1.2199395525        2.2016188152
 C          7.0167383894       -0.9317824382        1.4615070277
 C          6.9839777008        0.1591074470        0.6019122706
 C          4.7654881657       -1.6592911939       -0.5333460481
 C          3.6379080393       -2.4532721208       -0.4975020634
 N          0.0587427029       -2.0602153943        0.0145038467
 C         -1.1111808766       -2.6771613633        0.0254312228
 C         -2.2880135369       -1.8054956077        0.0815827036
 C         -3.4676136468       -2.1849452179        0.7195745203
 C         -4.5482993550       -1.3277307974        0.7569727538
 C         -4.4728290967       -0.0727592839        0.1582430414
 N         -5.5809772189        0.7961325308        0.1902258729
 C         -6.7807855810        0.4389999563       -0.4324081438
 C         -6.9217691115       -0.7417317425       -1.1503467495
 C         -8.1243244322       -1.0611704357       -1.7620071543
 C         -9.2011847534       -0.2025922094       -1.6759411880
 C         -9.0672266221        0.9945544785       -0.9886398660
 C         -7.8698052379        1.3189315345       -0.3791485576
 O         -7.8046083946        2.5358945073        0.2532765893
 C         -6.6175838361        2.8750473989        0.8525036119
 C         -6.5679806330        4.0989080021        1.4932641648
 C         -5.4137504132        4.5000165199        2.1496976574
 C         -4.3195234404        3.6597811037        2.1743159061
 C         -4.3633879691        2.4316975084        1.5318960233
 C         -5.5005161824        2.0287129796        0.8430125330
 C         -3.2897887175        0.3181591058       -0.4659053948
 C         -2.2100151849       -0.5370924416       -0.4962392085
 H         -0.0353838640       -5.8925895329       -0.0474294522
 H          2.1310797175       -4.6958229244        0.0441108697
 H          1.4261354758       -0.2136858597        0.7130558178
 H          3.4466987036        1.2159018396        0.6633673018
 H          3.9618548227        1.3366743263       -1.8507187564
 H          4.0695589621        3.3485476851       -3.2354599812
 H          6.0776305411        4.7972328304       -3.1759522928
 H          7.9934334363        4.1546760075       -1.7286514682
 H         10.0909880451        1.3569086456        1.1951482092
 H         10.1600159560       -0.6395745604        2.6742260820
 H          8.1516018159       -2.0774734584        2.8568607346
 H          6.1436001771       -1.5572148852        1.5621468072
 H          5.7004294795       -2.0574194388       -0.8993991033
 H          3.7032175143       -3.4693062583       -0.8557669886
 H         -3.5360837452       -3.1405609097        1.2159550381
 H         -5.4571995562       -1.6219654496        1.2599885023
 H         -6.0843269452       -1.4156815676       -1.2398761369
 H         -8.2057511683       -1.9876786913       -2.3088354111
 H        -10.1398370585       -0.4480958865       -2.1464601812
 H         -9.8822550786        1.6970013400       -0.9180698491
 H         -7.4478267612        4.7218853772        1.4715614234
 H         -5.3837395128        5.4578273577        2.6444686966
 H         -3.4207110197        3.9483724359        2.6972382613
 H         -3.5069194823        1.7773328584        1.5751778616
 H         -3.2311958898        1.2911543205       -0.9309638758
 H         -1.2921179772       -0.2462483441       -0.9830040132
