72
 energy: -112.474972486294 gnorm: 0.000045219559 xtb: 6.7.1 (edcfbbe)
C            4.17012997351352       -3.65069692082463       -3.05012533141895
C            2.79735416973003       -3.42396570384809       -3.11425998865486
C            2.17699252492272       -2.52014722361179       -2.26705779174439
C            2.96517014577135       -1.85395157155315       -1.34168049485270
C            4.36681511434886       -2.05918067925924       -1.28614798133114
C            4.96599176892640       -2.97148938187089       -2.14619802338440
C            4.86821798026908       -1.18351565061245       -0.26825087176308
C            6.13508234119254       -0.94158952501755        0.24986818237853
C            6.26715555385422       -0.02706825416854        1.27810478645289
C            5.15752453747708        0.63042472519160        1.80420886023465
C            3.88650990188733        0.40835439512010        1.30060076280071
C            3.74935826667472       -0.48422260315615        0.25015502068316
N            2.60808670999853       -0.90053812764898       -0.40742102426370
C            1.30987475707836       -0.42930443791971       -0.19125863050889
C            0.27064246299339       -1.36628461311017        0.00042323037810
C           -1.04815266528940       -0.89761728926436        0.19160055053587
N           -2.06716256780600       -1.82901096254730        0.41041506175547
C           -2.03145302230417       -2.84451108695077        1.34688588062463
C           -1.04670441865308       -3.15764729972421        2.27074821750234
C           -1.27351528629712       -4.22782713257158        3.12095335025540
C           -2.45624721802285       -4.96105091390193        3.06121621941965
C           -3.45303990660477       -4.63879478972751        2.15878992639374
C           -3.24905415276205       -3.56891930277977        1.29574714717620
C           -4.04887085551559       -2.95292522423477        0.27839974637431
C           -5.31352165328328       -3.21349593468348       -0.23613918385603
C           -5.78674970285722       -2.42076205705530       -1.26506353641575
C           -5.01291909685225       -1.39103395185897       -1.79540837109129
C           -3.75208572398876       -1.11045452511970       -1.29533113158112
C           -3.28250216517944       -1.88086203468566       -0.24420215641569
C           -1.32316799762112        0.45138169736614        0.16721153487150
C           -0.27641734967434        1.38524312191852       -0.00138726607671
N           -0.54607323081692        2.74344665394878       -0.00196825426831
C            0.15972608003955        3.71072707751856        0.69418344139240
C            1.21295875004059        3.56661521116115        1.57928795213221
C            1.73328167059136        4.70893557556111        2.17281103507509
C            1.20381721323828        5.96813570520180        1.88925866368454
C            0.12967785287438        6.12069322223322        1.03233522009193
C           -0.41688446143259        4.98745144985985        0.43449355724122
C           -1.51983521830460        4.76847834917903       -0.44202457963185
C           -2.45649487634331        5.60735091931888       -1.04146019772100
C           -3.39182734473435        5.05588768376972       -1.89726154264613
C           -3.40241171561762        3.68937330438502       -2.17802955793489
C           -2.48647521365152        2.83210014235902       -1.58297910620294
C           -1.56703510564347        3.36789225542327       -0.69921240188246
C            1.04822690993425        0.92235493294869       -0.16891798840375
H            4.61830344009814       -4.36323505466546       -3.72661536810962
H            2.20493666574032       -3.95775556470422       -3.84190578649879
H            1.11616714460930       -2.33366207521852       -2.33832932134895
H            6.03140497995289       -3.14004845776158       -2.10864299859904
H            6.99456896439755       -1.46353392659488       -0.14228107561565
H            7.24410857793661        0.17569945794941        1.69114154535601
H            5.28886925824809        1.32398700250180        2.62092677720396
H            3.02931545578926        0.90562908923002        1.72657895122520
H            0.48039417661399       -2.42210044418876        0.00077046511581
H           -0.13707317983651       -2.58046559708194        2.33879508136950
H           -0.52063492960080       -4.49363322142409        3.84749753916954
H           -2.59728734460181       -5.78906065049130        3.73997806649175
H           -4.37372774348322       -5.20101134656285        2.12465565981822
H           -5.90815059820691       -4.02278550641666        0.15931658805945
H           -6.76820771109560       -2.60674645620827       -1.67531290005806
H           -5.40071863000168       -0.80190676380119       -2.61262146709045
H           -3.15027374920884       -0.32487186874495       -1.72455563096522
H           -2.32471731767631        0.80597576836177        0.35403377029229
H            1.60977860124899        2.59406577494283        1.82351468906783
H            2.55445457577921        4.61905590914624        2.86677245555384
H            1.63658232118276        6.83766664045421        2.36176674864421
H           -0.28522329086858        7.09657117806834        0.83164957703478
H           -2.44409839368810        6.66807638861772       -0.84280879662363
H           -4.12293819648410        5.69442166725891       -2.37095432595402
H           -4.12784668136636        3.29241717569273       -2.87096386073873
H           -2.48372430984499        1.78118901109204       -1.82495118480721
H            1.83813181855890        1.63277984680384       -0.35615244615651
