72
 energy: -112.474960327445 gnorm: 0.000065086369 xtb: 6.7.1 (edcfbbe)
C           -2.12288793949519       -5.68232001312037       -1.94962342345036
C           -2.43283773318142       -4.35293341960009       -2.23718913538208
C           -1.74867311244743       -3.31241230741627       -1.62300364870255
C           -0.75522610319063       -3.62966807769060       -0.71427522259294
C           -0.40233999209071       -4.98378004170433       -0.44754718615039
C           -1.11089024260292       -6.01085467897115       -1.06669681871238
C            0.69856955828826       -4.94965007886441        0.45826076195404
C            1.46794671677156       -5.93082366634239        1.07925038926621
C            2.45808449012930       -5.54002977243180        1.96160497688536
C            2.68693189670312       -4.19380549846216        2.24682575593585
C            1.94109850145796       -3.19772906539288        1.63076097567486
C            0.96887591213012       -3.57619881194397        0.72250588729716
N            0.08237605223615       -2.79256659398065        0.00330691122579
C            0.04117602713630       -1.40783343984370        0.00161420636012
C           -1.18934611063486       -0.73298597869612        0.15676048502155
C           -1.22340999578973        0.64393196582533        0.18054127305385
N           -2.42649791178371        1.32310258991225        0.39113136970435
C           -3.61982480393290        1.09701869037144       -0.26720633668644
C           -3.89942782745746        0.23740860953674       -1.31681815299595
C           -5.18956392289049        0.22401535461008       -1.82113382387252
C           -6.17799535010317        1.05340474130460       -1.29620743787602
C           -5.89992635813764        1.93532298574309       -0.26857055708752
C           -4.61073396703366        1.96914310878880        0.25017428562147
C           -3.97493667804670        2.75175271077027        1.26847439445514
C           -4.41923349034017        3.74854705359570        2.12893725070979
C           -3.52508304628021        4.28825881497753        3.03509207876260
C           -2.20752084143570        3.84140748686533        3.10108104383417
C           -1.74084619709697        2.84975684529869        2.25320125407787
C           -2.62510907185241        2.32162438692075        1.32570960710712
C           -0.04131021163766        1.39493135294182       -0.00178012757173
C            1.18261380044690        0.71466208052633       -0.18246517620923
N            2.34372718061617        1.46311645217169       -0.39486801614098
C            3.54784335238290        1.31025944593841        0.26480603157621
C            3.87712128252193        0.47210183609595        1.31737628987897
C            5.16543184647547        0.53675630883789        1.82229284698047
C            6.10337282428382        1.42152152681958        1.29519283170897
C            5.77429673465463        2.28199169611964        0.26445408750504
C            4.48576997567322        2.23762154350098       -0.25507936416377
C            3.80552457813024        2.97763752538546       -1.27658891068550
C            4.19074717029957        3.99580426439728       -2.14046041504954
C            3.26685823317685        4.47851831042898       -3.04892059326462
C            1.97804067235647        3.95439901923240       -3.11379615813530
C            1.57020648852573        2.93997312273059       -2.26258627153039
C            2.48359682243686        2.46827970063030       -1.33288507014884
C            1.23009534032720       -0.66176063837762       -0.15546881715708
H           -2.67890425901486       -6.46822912756308       -2.43935365134202
H           -3.21047332543077       -4.12848793745689       -2.95057327176898
H           -1.97548437751545       -2.28702339960690       -1.86869606442506
H           -0.86623967941472       -7.04197902823529       -0.86257034512381
H            1.28624400078289       -6.97523599549769        0.87695034510937
H            3.06060119805408       -6.28995321722922        2.45275819843748
H            3.44941289257444       -3.92141620432925        2.95987211809000
H            2.10523282652625       -2.16004075552178        1.87468634871074
H           -2.08780168093602       -1.30323140443874        0.33388993532080
H           -3.13445285882384       -0.39347744191846       -1.74146871895781
H           -5.43135640181811       -0.44001055670856       -2.63713673731984
H           -7.17477512104199        1.01131355190016       -1.70952832253473
H           -6.66369060859004        2.58981013794182        0.12286100593706
H           -5.44303839511366        4.08800308074043        2.09018215960853
H           -3.85276616806510        5.06318896320557        3.71210110254335
H           -1.53752933338549        4.27058930760798        3.83062203938617
H           -0.72467414460811        2.49306857219167        2.32636084949504
H           -0.07317542023285        2.47095784196076       -0.00343786256312
H            3.15054427960707       -0.20162316168359        1.74365053746438
H            5.44559251002296       -0.10918227466537        2.64054298350657
H            7.10059150073128        1.43990696124361        1.70918298106467
H            6.49823301584141        2.97925669155042       -0.12879373882295
H            5.19270354681567        4.39524187771481       -2.10251440635365
H            3.54860887986365        5.26902223712913       -3.72858801803140
H            1.28431011994303        4.34069870739631       -3.84511749972870
H            0.57688842410875        2.52368201657467       -2.33473975040786
H            2.16058456554495       -1.17842838517825       -0.33151381835668
