65
 energy: -101.592505600739 gnorm: 0.000051390521 xtb: 6.7.1 (edcfbbe)
N          -10.87902905746357       -0.00014278787085       -0.00062269354939
C           -9.73240123660014        0.00021849491658       -0.00056984323360
C           -8.31924161918560        0.00024516579483       -0.00038508843979
C           -7.62145536361148        0.18372836972761        1.19435677582296
C           -6.24175841405441        0.18051523883288        1.18859490600481
C           -5.53630287899233        0.00003795848093        0.00018756909047
C           -4.05913112734505        0.00005656235839        0.00033275345131
C           -3.36341513444086        1.06057083254886       -0.59777519827207
C           -4.03776809705331        2.16515225932062       -1.18201140911337
C           -3.34953443604747        3.19369123894240       -1.74778569329080
C           -1.94050605210555        3.18966097019738       -1.75267642908974
C           -1.25564920337193        2.15777019265345       -1.18928127294590
C           -1.93381225686301        1.05898068418628       -0.59883977234836
C           -1.23766314106010       -0.00001398822765        0.00011235151513
C            0.24075501303773       -0.00017742795646       -0.00007377756370
C            0.94768089803952       -0.23342612599760       -1.17585358770431
C            2.32863942855730       -0.23178470104054       -1.18016591405258
C            3.03054700428850       -0.00035339256122       -0.00025132110432
N            4.43126363946384       -0.00024943622636       -0.00032272739227
C            5.23954695733169       -0.98682141307495       -0.53022513909809
C            4.89082204040605       -2.19203070920812       -1.12264924006420
C            5.91137869529532       -3.02065781692176       -1.54804829614248
C            7.24967171984054       -2.67019021755340       -1.38408060643626
C            7.60286817071185       -1.48343274945628       -0.77378532818147
C            6.59489185082409       -0.63375003702624       -0.33758689645322
C            6.59465452951687        0.63365259494776        0.33774564620314
C            7.60228230709062        1.48360227577824        0.77423657798801
C            7.24859354109879        2.67042000633079        1.38413228166548
C            5.91016664775279        3.02066673401659        1.54749318879307
C            4.88995586961978        2.19173264636011        1.12188107775971
C            5.23917891334129        0.98648995698704        0.52981800838221
C            2.32881785817492        0.23118813459862        1.17975569946958
C            0.94787045280569        0.23290117500102        1.17562748133287
C           -1.93378268323369       -1.05890488717503        0.59928187555807
C           -1.25557146813907       -2.15768473219958        1.18968523725056
C           -1.94037882641245       -3.18954241834587        1.75319146284877
C           -3.34940919160607       -3.19355627623230        1.74844393070698
C           -4.03768977699860       -2.16500114137339        1.18275924800900
C           -3.36338405432001       -1.06045345943055        0.59840624352499
C           -6.24131296099624       -0.18033362561087       -1.18850176637737
C           -7.62100187325412       -0.18334079754475       -1.19485230540071
H           -8.16768225481875        0.32716911056676        2.11511895601470
H           -5.69651777370841        0.32523118639919        2.10992108599167
H           -5.11745624144455        2.18175094561402       -1.16352631664020
H           -3.87804174791231        4.02601806898425       -2.18856443349768
H           -1.41051152966585        4.01837926108669       -2.19834940140471
H           -0.17588882653676        2.16327467891220       -1.17653640182563
H            0.40551446447445       -0.41459941411286       -2.09267034612514
H            2.87119703117736       -0.39525878689248       -2.09925273337834
H            3.85706122853060       -2.48134217032187       -1.23881765928180
H            5.66565875170163       -3.96305042134888       -2.01513640123146
H            8.01794185134132       -3.34415976627568       -1.73277951682222
H            8.63984797440264       -1.21875611946336       -0.63201691193662
H            8.63937656385541        1.21908283663118        0.63301290342679
H            8.01658551087860        3.34460970548492        1.73301789931916
H            5.66406322539107        3.96315798286373        2.01418270919263
H            3.85608009403379        2.48085350752382        1.23752170473006
H            2.87150652353429        0.39464375945584        2.09876990410496
H            0.40582260046094        0.41418972507013        2.09249377478656
H           -0.17581405297600       -2.16322436728754        1.17679455103863
H           -1.41033149984219       -4.01824639999351        2.19882994956926
H           -3.87786776494048       -4.02589891781846        2.18925513828950
H           -5.11738558131468       -2.18151274919908        1.16448799042497
H           -5.69569998342110       -0.32508070263261       -2.10960009414740
H           -8.16684224723321       -0.32666430419929       -2.11585335973065
