  65
       -101.52597394
 N        -10.6479145735       -0.0442422858       -0.1338063986
 C         -9.4999657089       -0.0341990371       -0.1000414207
 C         -8.0921490523       -0.0217275460       -0.0640100387
 C         -7.4169559336        0.7198947830        0.9121982471
 C         -6.0420471811        0.7373564449        0.9362827730
 C         -5.2909912500        0.0036856706        0.0047523325
 C         -3.8383170083        0.0128303898        0.0341085773
 C         -3.1277366524        1.2530306411        0.0229172092
 C         -3.7875163905        2.4814230730       -0.0891242743
 C         -3.1001956982        3.6873659847       -0.0030234077
 C         -1.7366794355        3.6847830852        0.2080339982
 C         -1.0465490998        2.4782855094        0.2535774663
 C         -1.7025884548        1.2529627070        0.0955614441
 C         -0.9866865796        0.0174460735        0.0396721859
 C          0.4662103653        0.0195948901        0.0317995065
 C          1.1846515697        0.7950185466       -0.8894148493
 C          2.5606708505        0.7833563315       -0.9123771380
 C          3.2746780608        0.0106163490        0.0047743323
 N          4.6707531023        0.0010155038       -0.0108849084
 C          5.4882886648        1.1140968045       -0.0591586193
 C          5.1512300764        2.4602259535       -0.0511075836
 C          6.1797542837        3.3831204194       -0.0777265198
 C          7.5140503762        2.9847250071       -0.1008018802
 C          7.8562998598        1.6465485049       -0.0793605446
 C          6.8405737905        0.7013158791       -0.0532914069
 C          6.8292683811       -0.7350859864       -0.0041860253
 C          7.8293532521       -1.6971162403        0.0049877644
 C          7.4652430836       -3.0295157625        0.0294314207
 C          6.1244274644       -3.4057563987        0.0260348081
 C          5.1111982554       -2.4658154935        0.0176375190
 C          5.4706914031       -1.1254483010        0.0232081065
 C          2.5734176256       -0.7545048618        0.9380933706
 C          1.1973302068       -0.7570743786        0.9419732974
 C         -1.6973710625       -1.2210782606       -0.0087348932
 C         -1.0394526401       -2.4461942373       -0.1616145515
 C         -1.7270109020       -3.6536853749       -0.1055199224
 C         -3.0898254470       -3.6579853085        0.1098728000
 C         -3.7795687413       -2.4527595742        0.1861369746
 C         -3.1222130000       -1.2242419497        0.0625240064
 C         -5.9830265941       -0.7442987996       -0.9610262971
 C         -7.3570647317       -0.7519706989       -1.0050138123
 H         -7.9853963400        1.2720912577        1.6465278673
 H         -5.5256936170        1.2888597671        1.7086312314
 H         -4.8539224724        2.4999299232       -0.2529606066
 H         -3.6416721955        4.6175371966       -0.0864702048
 H         -1.1970778792        4.6130423529        0.3219297658
 H          0.0192747742        2.4915119141        0.4226292947
 H          0.6427720107        1.3696713078       -1.6261563320
 H          3.0965348621        1.3483546666       -1.6604509686
 H          4.1212029159        2.7808046731       -0.0124180825
 H          5.9429645319        4.4367673382       -0.0765018446
 H          8.2888248324        3.7363179360       -0.1248914003
 H          8.8906500121        1.3379071244       -0.0778827193
 H          8.8685317245       -1.4058594318       -0.0125005648
 H          8.2276625874       -3.7937762873        0.0397250982
 H          5.8700938407       -4.4553301455        0.0253970442
 H          4.0756070789       -2.7690970908       -0.0061040337
 H          3.1203169132       -1.3227949515        1.6756229347
 H          0.6659905331       -1.3270463036        1.6899354778
 H          0.0253491482       -2.4586501576       -0.3364348746
 H         -1.1858928698       -4.5815623745       -0.2150861436
 H         -3.6288156666       -4.5886299148        0.2030364255
 H         -4.8458923152       -2.4713131814        0.3509074699
 H         -5.4188707753       -1.2897190392       -1.7035642621
 H         -7.8786428837       -1.3148905779       -1.7655202499
