65
 energy: -101.530666306324 gnorm: 0.000026349846 xtb: 6.7.1 (edcfbbe)
N          -10.65103881190412        0.00907565728556       -0.02174924556148
C           -9.50308419622929        0.00843391701529       -0.01534180016509
C           -8.09363961917292        0.00759714726372       -0.00760160791312
C           -7.39473350151814        0.70530196041305        0.98274919667618
C           -6.01873287060851        0.70871696074930        0.98096711628511
C           -5.29480932304695        0.00646652132574        0.00720385758671
C           -3.83839614018688        0.00596956652639        0.01333244343118
C           -3.12437172759578        1.24652655730847        0.01162451296371
C           -3.78344406832991        2.47512512505344       -0.07945369045092
C           -3.09191711617007        3.68046197592287        0.00836614629571
C           -1.72712457769261        3.67351907663955        0.19927887438120
C           -1.03853526826562        2.46385143829311        0.22984612673911
C           -1.69977062696567        1.24253104742628        0.07641713836626
C           -0.98808912576927        0.00306812121980        0.01445257098262
C            0.46880258907404        0.00215467199826        0.01098892486354
C            1.18843187216854        0.75344762863522       -0.92610751760976
C            2.56556213297999        0.74436415384653       -0.94043743517759
C            3.27460875547364       -0.00144693091806        0.00122322621599
N            4.67170662851582       -0.00414989422208       -0.00425889632055
C            5.48261432599894        1.11290284755998       -0.06986415866558
C            5.13751288544680        2.45677619133784       -0.08834237272157
C            6.16043869176813        3.38533371549089       -0.12606811948538
C            7.49733179259654        2.99501465055982       -0.13495904095187
C            7.84742470484157        1.65979842494386       -0.08878004972810
C            6.83724471410806        0.70871115958893       -0.05100694308929
C            6.83451570967049       -0.72625198997102        0.02379661827991
C            7.84091277071428       -1.68165354225908        0.05274095187560
C            7.48553382988667       -3.01537506967372        0.10166514207312
C            6.14696088164828       -3.39998617284930        0.10414753628008
C            5.12773014987904       -2.46705783557202        0.07541311546884
C            5.47839362448092       -1.12466599524672        0.05425048422706
C            2.57020076214905       -0.74476675595699        0.94830444877587
C            1.19295886269574       -0.75026078430949        0.94365099289491
C           -1.70196271185754       -1.23518256549731       -0.04498533628691
C           -1.04362038812840       -2.45841521384409       -0.19597153564245
C           -1.73500798459223       -3.66640784659311       -0.16231541348058
C           -3.09983115339030       -3.66984194798362        0.02850717179960
C           -3.78860755257026       -2.46267790201538        0.11276429609169
C           -3.12657086378217       -1.23590775733899        0.01911515537466
C           -6.00907053044995       -0.69573883338929       -0.97377803663455
C           -7.38490249532319       -0.69114568507347       -0.99025705974074
H           -7.94377276684238        1.23520692549168        1.74753875104369
H           -5.48181341367852        1.22967125511410        1.76034832031897
H           -4.85223558300013        2.49705824882464       -0.22698812918270
H           -3.63351831922903        4.61184559730326       -0.05916245424342
H           -1.18317691716683        4.59950696350490        0.31060645020327
H            0.02970543876535        2.47377430013136        0.38258646899900
H            0.64939169187392        1.31180910460545       -1.67741025201376
H            3.10488236507690        1.29434340084692       -1.69712564005337
H            4.10538498813425        2.77171546463211       -0.06083548982067
H            5.91716015750712        4.43737759837443       -0.14476770827364
H            8.26758217415010        3.75095357269632       -0.16778283441090
H            8.88360135056402        1.35743131498020       -0.07694169530462
H            8.87823125921559       -1.38371443247365        0.03203799106259
H            8.25280083235040       -3.77460413642368        0.12770564379676
H            5.89935566021747       -4.45098637503127        0.12465099712466
H            4.09407102521112       -2.77758567575695        0.05664887338206
H            3.11339017697820       -1.29598485669518        1.70132048687573
H            0.65776617328559       -1.30677553896717        1.69906130231451
H            0.02448809970134       -2.47127118193221       -0.34928598718401
H           -1.19315525008907       -4.59389499161167       -0.27136274908795
H           -3.64353125275001       -4.59982265454681        0.09840293576368
H           -4.85759210465188       -2.48159046010531        0.25950153763691
H           -5.46424318983745       -1.21782820319365       -1.74689271866655
H           -7.92623374444125       -1.22080720768057       -1.76068160539904
