65
 energy: -101.592612368178 gnorm: 0.000047034613 xtb: 6.7.1 (edcfbbe)
N          -10.64246693584544       -0.00198234862539        0.03580085265373
C           -9.49586892282016       -0.00116956626914        0.02776692883288
C           -8.08272977620170       -0.00030967474748        0.01793810628058
C           -7.37676609290601        0.28509303268160        1.18763186155149
C           -5.99715896281623        0.28589538355812        1.17136834061943
C           -5.29983423800153       -0.00040191591392       -0.00101349171132
C           -3.82273091673682       -0.00232274422626       -0.00953956361840
C           -3.12413036448716        1.20326942914189        0.14762086199740
C           -3.79618923549017        2.44716079783399        0.27949988695744
C           -3.10669600846239        3.60680898210274        0.45644443075719
C           -1.69905114299302        3.59469263418350        0.51737199946908
C           -1.01609853173200        2.42708109600278        0.37044128647098
C           -1.69459555834432        1.19790713221539        0.15897197465494
C           -1.00042677200308       -0.00749884241225       -0.01850828588746
C            0.47695591735721       -0.01033877063799       -0.01857550227612
C            1.18692296934448        0.58299876692233       -1.05855482617345
C            2.56771965974515        0.57868188895978       -1.06250022988578
C            3.26786355294459       -0.00743257836407       -0.01125295800910
N            4.66829839168144       -0.00118713340792       -0.00526854719592
C            5.47119087145668        1.10538472273410       -0.20174890509832
C            5.11597915585650        2.43219214764488       -0.39794536366952
C            6.13185560286392        3.35762868315153       -0.54168397079272
C            7.47207384879417        2.98192233495821       -0.48432756974150
C            7.83168541694808        1.66732055445190       -0.26505427928267
C            6.82838954624353        0.71876761276988       -0.11725430071030
C            6.83521037413006       -0.69442505541240        0.13797518282666
C            7.84792685991610       -1.63031384678870        0.30129132810596
C            7.50145898841251       -2.94896868183655        0.51736855646307
C            6.16528113407524       -3.34110186529260        0.55623661364244
C            5.14017577495369       -2.42850778739488        0.39655978666867
C            5.48174979514480       -1.09765537560208        0.20353097452476
C            2.56354824653343       -0.59749675945965        1.03493933191792
C            1.18284364621432       -0.60456473860891        1.02371929134368
C           -1.70014928814709       -1.21007147817481       -0.19267669557612
C           -1.02715939640061       -2.44164190141200       -0.40769053253047
C           -1.71503772462684       -3.60702000458204       -0.54921517927093
C           -3.12230487133726       -3.61416627353701       -0.47922915900731
C           -3.80670277719183       -2.45201540881400       -0.29897476452654
C           -3.12958262961667       -1.21034194181159       -0.17222618012672
C           -6.01298315803068       -0.28599535803694       -1.16397075713713
C           -7.39272506226546       -0.28516764295079       -1.16136901657415
H           -7.91657041298530        0.50308073127803        2.09748185987698
H           -5.44551151511107        0.50309608155086        2.07446696780228
H           -4.87511422918695        2.46030113309649        0.23343941537294
H           -3.63303288247053        4.54463273607446        0.55550461146101
H           -1.16840008525218        4.52145432367305        0.67815905340317
H            0.06261496104057        2.41853729770388        0.41658079305544
H            0.64691395438600        1.03667851836884       -1.87702051499296
H            3.11177479107664        1.01731907445319       -1.88551706608215
H            4.08065453732507        2.73724245985016       -0.42634360381768
H            5.88085945874009        4.39640843890288       -0.69849472835906
H            8.23660742633238        3.73501726783382       -0.60427300854010
H            8.87002302344561        1.37817150137873       -0.20410699784496
H            8.88337413129180       -1.32835076374614        0.25498056404155
H            8.27345461140802       -3.69234984134056        0.64953834903399
H            5.92498068367811       -4.38267890852461        0.71125526767427
H            4.10836909467259       -2.74622867740068        0.41084688033374
H            3.10412406190201       -1.03528629231315        1.86068363280119
H            0.63945213181326       -1.05943656886919        1.83927123260407
H            0.05127660824133       -2.43659689939978       -0.46077352171124
H           -1.18867835185861       -4.53578757400207       -0.71247993695996
H           -3.65256057830044       -4.55022150350344       -0.57402658881125
H           -4.88534701292858       -2.46152929980807       -0.24624751038759
H           -5.47378840764028       -0.50311389512332       -2.07458029411872
H           -7.94493339980168       -0.50320380146191       -2.06373822978513
