92
 energy: -146.918071528478 gnorm: 0.000058124939 xtb: 6.7.1 (edcfbbe)
C            5.50426978890123        4.56705865919189       -3.58197755063326
C            6.30249118907764        3.99306592772168       -2.60652351215303
C            5.74511884108410        3.50401815170910       -1.44135648104697
C            4.36826121305931        3.58765045636008       -1.22870889364212
N            3.78870793623962        3.09601100839640       -0.05837688474641
C            4.49708103742955        3.07220647617205        1.14929911052875
C            5.33964743078979        4.12394615531969        1.50600907515424
C            6.04441050000329        4.07626991103826        2.69325567427477
C            5.91613026370822        2.98992418289474        3.54323165474921
C            5.07048074205201        1.94829138221491        3.19834964002986
C            4.36465390700945        1.98425857972592        2.01228411850932
C            2.49352985073325        2.56054210543702       -0.08283570236731
C            1.59192593498381        2.86780371550034        0.93511933352935
C            0.33143074301120        2.30667564816876        0.94455384265479
C           -0.05016175978151        1.40351629397864       -0.04291160454117
C           -1.35397511990129        0.71875975768623        0.01738931215428
C           -2.51982769089408        1.43439707745448        0.05034414998443
C           -3.76884156330808        0.77886213255119        0.04361489147910
N           -4.89673589339972        1.49628267329197        0.07426961826497
C           -6.04356974896395        0.84048025075718        0.05013380487045
C           -6.07888567738090       -0.60124930206782       -0.01023929284282
N           -4.96600707765158       -1.31238350938594       -0.03891237315833
C           -3.80376094086788       -0.65098181976043       -0.01149006621295
C           -2.58989362928141       -1.36769685006867       -0.01832990698263
C           -1.38826893106026       -0.71137777661481        0.01424832672939
C           -0.12040351633396       -1.45287585787347        0.07521366807449
C            0.83860382525706       -1.11893008893883        1.03145321718381
C            2.06785908733479       -1.73598838078017        1.04080628749340
C            2.38076256029760       -2.70514226067133        0.08611137658530
N            3.66939564324608       -3.24414253981280        0.04909922123912
C            3.87445682213411       -4.59638379221585       -0.22991433684094
C            2.95215322779057       -5.55154328794059        0.19864045943904
C            3.15352178078398       -6.88866940847023       -0.08169280925050
C            4.27618105856872       -7.29843011783393       -0.78220162877299
C            5.19735714199882       -6.35458660043798       -1.20592689197844
C            5.00088385600302       -5.01384863280435       -0.93906828998281
C            4.75246967242422       -2.37971575470571        0.26228691734497
C            4.72478809066836       -1.08744038356508       -0.26218094471275
C            5.77970927056255       -0.22435181923436       -0.04368290276568
C            6.87526562990869       -0.63137439535787        0.69971262084153
C            6.91019055437665       -1.91556983978700        1.21786232564500
C            5.85963580460521       -2.78761431488346        1.00378083187085
C            1.40161434206947       -3.09033918732674       -0.82873887960244
C            0.16668856192668       -2.47368133545203       -0.82639663683196
C           -7.34743970133032       -1.23424918740416       -0.03687303128488
S           -7.60221757858190       -2.94416691025756       -0.11232943271046
C           -9.30867691513293       -2.70540447941771       -0.10000777725590
C           -9.67032674264077       -1.39998250812293       -0.04154391058153
C           -8.54932995397438       -0.53287748877382       -0.00448752315396
C           -8.51445170856626        0.89179812415996        0.05772617614322
C           -9.59197649289380        1.81207814567645        0.10000471974872
C           -9.16740832128902        3.09860333604494        0.15394623742359
S           -7.45132939090348        3.25464687822418        0.15619760095687
C           -7.27973841025706        1.53424789294687        0.08225091097699
C            0.84138241199421        1.12559046861164       -1.07707788425316
C            2.09243688855921        1.70323325857532       -1.10659645290382
C            3.57039344477583        4.17260431266929       -2.21345070081579
C            4.13680095741809        4.65223166187455       -3.37779478734615
H            5.94402489644390        4.94594793991396       -4.49188510552863
H            7.36968889281994        3.91768625197326       -2.75591346736241
H            6.37733287279251        3.05542735828311       -0.68885294269042
H            5.43467478639213        4.97583508510771        0.84854590277230
H            6.69374258177161        4.89745659561965        2.95941349577157
H            6.47042017468240        2.95647675321856        4.46887036624782
H            4.96736562691266        1.09522323645559        3.85271492614647
H            3.71391102172086        1.16686574952042        1.73837853307865
H            1.89372493530233        3.54371852162763        1.72193484704349
H           -0.35830570793295        2.54504558026386        1.74140026108869
H           -2.51279377924779        2.51386361505026        0.05566035257189
H           -2.63808877296473       -2.44600551359198       -0.01903184608469
H            0.61004872448089       -0.37623842419717        1.78073079081170
H            2.80689365471624       -1.46651940190368        1.78120141339777
H            2.08202768062005       -5.23677396644017        0.75602166934209
H            2.43189044149595       -7.61732018723974        0.25751566202768
H            4.43189466590386       -8.34481135723601       -0.99623830599580
H            6.07314562502711       -6.66361208100263       -1.75756949023282
H            5.71519366047377       -4.27985415724108       -1.28226078447342
H            3.87001966379254       -0.76763129736146       -0.84049612551882
H            5.74825550130590        0.76803770381448       -0.46622422275860
H            7.69577391894494        0.04794463953329        0.87398646715267
H            7.75965265362043       -2.24025442053539        1.80073943904872
H            5.88552297083848       -3.78677094733047        1.41375799357531
H            1.62577183420882       -3.85574398065021       -1.55717400205342
H           -0.57230048902807       -2.75370127891695       -1.56305915781793
H           -9.95271531464405       -3.56209503306958       -0.13751245149997
H          -10.69016970690645       -1.06112424353459       -0.02514976512833
H          -10.62704475774919        1.52271105475523        0.09053366202215
H           -9.76910501297544        3.98546620079386        0.19332950895962
H            0.54871470739969        0.44321347020235       -1.86166529499067
H            2.77693993064000        1.48105529745811       -1.91243255788746
H            2.50489864943757        4.25217957891969       -2.05493891050727
H            3.50508755473988        5.10441952006517       -4.12827497854032
