92
 energy: -146.917088023224 gnorm: 0.000077803155 xtb: 6.7.1 (edcfbbe)
C            2.50463979465397        7.90569329259495       -0.27143964591528
C            3.48473387273804        7.27231135260480        0.47492470863775
C            3.56064082155652        5.89350156531909        0.50720143545536
C            2.65510587201281        5.12320958356215       -0.22198386044705
N            2.71656841472212        3.72606579546341       -0.20393497924069
C            3.94068995291501        3.06548210326115       -0.06312074720500
C            4.03687285336260        1.91754092699949        0.72382966412174
C            5.25661877918614        1.29458894970039        0.89909646233016
C            6.39457555800005        1.79762972272757        0.28981213419508
C            6.30067653679269        2.92342141134617       -0.51162297176618
C            5.08533146437050        3.55453389383238       -0.69209040896244
C            1.52763284646836        2.98768201242871       -0.20208939632847
C            0.44199999815976        3.39991136181091        0.56952031555844
C           -0.71664010265928        2.65498098277027        0.59147364767901
C           -0.83461732763397        1.48344223956363       -0.15618524796065
C           -2.08311666535497        0.71063507841794       -0.07955426603257
C           -3.27686427490375        1.38467468582902       -0.15569272366340
C           -4.50991874331221        0.70989243308858       -0.08019443770542
N           -5.65478093648087        1.39746526908394       -0.15996413717681
C           -6.78423142179974        0.71662566801048       -0.08246822313323
C           -6.78409445061526       -0.71793306517269        0.08241772606088
N           -5.65451396652092       -1.39855565165256        0.15992533289958
C           -4.50978305708281       -0.71076299582092        0.08016646675474
C           -3.27659962188314       -1.38530853496343        0.15567430457554
C           -2.08298083989894       -0.71103987472164        0.07954411059326
C           -0.83433346690664       -1.48360687498682        0.15618461209282
C            0.24155542042584       -1.09555152704092        0.95453303261944
C            1.40916135877821       -1.82911504752823        0.97041532033308
C            1.52820698701653       -2.98739008113081        0.20210526199800
N            2.71728596901229       -3.72554298180399        0.20395800234563
C            3.94127962634092       -3.06472124778125        0.06314911984154
C            4.03724274690030       -1.91676170304844       -0.72380136608486
C            5.25686815512145       -1.29357229267542       -0.89906268003550
C            6.39492002107638       -1.79639127243034       -0.28977287229574
C            6.30123642072393       -2.92220087186560        0.51166227423772
C            5.08601338935318       -3.55354985807785        0.69212437449402
C            2.65609483392508       -5.12269863053407        0.22200794424329
C            1.67170050018253       -5.76594296453354        0.97287177756162
C            1.59890650736333       -7.14485591441820        0.99097191514067
C            2.50616935226500       -7.90521148419799        0.27146620150945
C            3.48614439676257       -7.27163992409765       -0.47489351725809
C            3.56178349443289       -5.89281545007148       -0.50717147728812
C            0.44265881024220       -3.39982992738381       -0.56951105546487
C           -0.71612506423448       -2.65512339417450       -0.59147256042011
C           -8.03701997446369       -1.37754587241280        0.15762511732584
S           -8.24995836181330       -3.08391723533462        0.35178314166894
C           -9.96178206396229       -2.88805972469299        0.32836987526465
C          -10.35519589379973       -1.59887765226889        0.18140884302769
C           -9.25578507679711       -0.70954356261197        0.08077776153775
C           -9.25592037844991        0.70776109965413       -0.08085716196228
C          -10.35550091592448        1.59688379979520       -0.18150184781537
C           -9.96233313372278        2.88614144181046       -0.32845838439940
S           -8.25054683056143        3.08232800900010       -0.35185106719067
C           -8.03728280056929        1.37599768426009       -0.15768989759808
C            0.24135206386496        1.09559489006698       -0.95452622054622
C            1.40881633819668        1.82938406976929       -0.97040040394528
C            1.67059075578216        5.76626344753312       -0.97285247947898
C            1.59752880667291        7.14516224023994       -0.99095136303426
H            2.44729058685265        8.98335146501874       -0.29085158707034
H            4.19140601697101        7.85649599657412        1.04602044691672
H            4.31770986274546        5.40447079312889        1.10251702575955
H            3.15228240589850        1.52885176014952        1.20685194300250
H            5.32174270759033        0.41524019622702        1.52240677961772
H            7.34765160625067        1.31366622261419        0.43784952097111
H            7.18030324730172        3.31379827910195       -1.00241794371854
H            5.01347483072849        4.43290433590337       -1.31674469456713
H            0.52346245588423        4.29892869843293        1.16277168610595
H           -1.53588462603451        2.96454165617099        1.22358918907786
H           -3.30165874748415        2.45401999076687       -0.30041970879343
H           -3.30118990204329       -2.45465858036694        0.30040114054553
H            0.15458644347530       -0.22087156718591        1.58154049771677
H            2.24162703508891       -1.51503672337715        1.58300800368671
H            3.15257892298302       -1.52824498586720       -1.20682799606336
H            5.32182379439273       -0.41421107364373       -1.52237297926211
H            7.34790248858974       -1.31224223714724       -0.43780600300983
H            7.18093682695980       -3.31240626736084        1.00246151882042
H            5.01432486791855       -4.43193393015140        1.31677880680589
H            0.96814723866772       -5.17541230951212        1.54141579261584
H            0.83237858980626       -7.62923318767045        1.57787782077950
H            2.44902958513605       -8.98288076303821        0.29087918363253
H            4.19293323633669       -7.85568786748607       -1.04598466410764
H            4.31876072019467       -5.40363824409249       -1.10248351291746
H            0.52429893146093       -4.29883188768009       -1.16276130836978
H           -1.53530556835644       -2.96484273127742       -1.22359334856476
H          -10.58464495321523       -3.75552524851808        0.42662926700308
H          -11.38300277998174       -1.28665679835527        0.14516101545143
H          -11.38324820710046        1.28446537707824       -0.14526655305297
H          -10.58536158519957        3.75348718204124       -0.42672563933554
H            0.15455638799794        0.22089827318996       -1.58153447519125
H            2.24134677787556        1.51546685606754       -1.58298765723467
H            0.96715546435902        5.17559673125845       -1.54140112334125
H            0.83090998798698        7.62939119591605       -1.57786092767162
