92
 energy: -146.875717197588 gnorm: 0.000084732011 xtb: 6.7.1 (edcfbbe)
C            5.48361121208173        4.59998807775084       -3.58279779503405
C            6.29121256466120        4.02636143618857       -2.61460214097521
C            5.74411773224812        3.53098721629726       -1.44738919882867
C            4.36786589865627        3.60800207483716       -1.22557459286553
N            3.79714849175203        3.10865376645933       -0.05560794842437
C            4.50769721345066        3.07706334255925        1.14877927365540
C            5.35961978455518        4.12181727043383        1.50583675565263
C            6.06441937261393        4.06738549383604        2.69253178547439
C            5.92797620061963        2.98113284113340        3.54164067785017
C            5.07353431424348        1.94660417002467        3.19655422666166
C            4.36670088312308        1.98933737134645        2.01146677637389
C            2.50222140612835        2.56709883680649       -0.08093090966457
C            1.59341248955765        2.88251810753211        0.92753270803532
C            0.33592527293036        2.31420608863498        0.93582975266468
C           -0.03472559114070        1.39624404823978       -0.04267312413193
C           -1.33035649814660        0.69828494842118        0.01626731146650
C           -2.51472085795176        1.41636804965680        0.04557512560932
C           -3.75460610147046        0.78387186613958        0.03704665719336
N           -4.90397666561458        1.45092560723231        0.06436611813906
C           -6.08021514744568        0.84571419053280        0.04193870607591
C           -6.11903976551880       -0.60150569674744       -0.01338868877382
N           -4.97732353598372       -1.26882192315472       -0.04019206219098
C           -3.79306042993334       -0.66437701251902       -0.01567105578749
C           -2.58967941183522       -1.36238166933873       -0.02438932385762
C           -1.36700687478269       -0.70910514764981        0.00699978488458
C           -0.10914101073927       -1.46559876966499        0.07070569306079
C            0.84970033731583       -1.13491228973514        1.02911372223673
C            2.07869202882423       -1.75215648275864        1.03961402306760
C            2.39037972244189       -2.72086839539215        0.08452224974414
N            3.68213126240168       -3.25783338227210        0.04568064745674
C            3.88779114516488       -4.61161294696668       -0.21862690096945
C            2.96252347276262       -5.56249410672934        0.21454872647891
C            3.16410414995695       -6.90197593306066       -0.05329087784515
C            4.28890547647696       -7.31854352657267       -0.74669363287723
C            5.21231722721984       -6.37913592701116       -1.17602865314437
C            5.01653677112528       -5.03621289351283       -0.92098615647293
C            4.76117523497741       -2.38873727895379        0.25203511734118
C            4.72234831497313       -1.09512603489485       -0.26986488622254
C            5.77188826930743       -0.22515107887544       -0.05376713941125
C            6.87319201052991       -0.62570777704745        0.68500551105958
C            6.91958558521442       -1.91089893985577        1.20015838114852
C            5.87491562601575       -2.79023996813334        0.98817744849432
C            1.41142753896641       -3.10723626723474       -0.82961592442687
C            0.17670656890625       -2.48936719015879       -0.82839691612125
C           -7.37621903117559       -1.21798429585350       -0.03429497657203
S           -7.63358966079625       -2.93805231416710       -0.09808726965942
C           -9.34512347736879       -2.69620855858962       -0.08519014314611
C           -9.70613249513316       -1.39322988372413       -0.03543155642161
C           -8.58995735694742       -0.51679922111549       -0.00502997560909
C           -8.55200453659748        0.89378295495148        0.04865868962973
C           -9.61926600093753        1.82883239881087        0.08692318306786
C           -9.18849647225477        3.11051333736488        0.13509052550133
S           -7.46636488920617        3.26016189468990        0.13686087944961
C           -7.30216469894311        1.52879970355380        0.07036704824912
C            0.86468165712199        1.11410107730103       -1.06977691400836
C            2.11319713313756        1.69686459187206       -1.09783485879607
C            3.56014706226976        4.19071925346314       -2.20422641246622
C            4.11674494228458        4.67720801860175       -3.37019826716658
H            5.91564950302789        4.98410327759924       -4.49413687041722
H            7.35756005554106        3.95602152898404       -2.77184288062957
H            6.38271347036247        3.08007987237234       -0.70169711290743
H            5.45933865465588        4.97462818798585        0.85033789632135
H            6.71988935661124        4.88336472287966        2.95938830701269
H            6.48220610918967        2.94266392793627        4.46704411728406
H            4.96386502890909        1.09409744830953        3.85047710544647
H            3.70928012310252        1.17746198655502        1.73727229799406
H            1.88725135521004        3.56986362290702        1.70755063764263
H           -0.35958038171005        2.55811292509357        1.72585413395122
H           -2.49749891941698        2.49555910228308        0.05037152186526
H           -2.63129930544493       -2.44082410110269       -0.02640312040816
H            0.62086155621532       -0.39032800334481        1.77632612895024
H            2.81759097132065       -1.48421326281397        1.78085120313930
H            2.09135024373381       -5.24211458077884        0.76687901576770
H            2.44103307437574       -7.62720681625025        0.28982432875557
H            4.44443512556220       -8.36677479478722       -0.95124850754663
H            6.08907475158991       -6.69364846208965       -1.72286465097831
H            5.73144639911071       -4.30562280784434       -1.27003024869333
H            3.86334263301003       -0.78073357000931       -0.84460139320388
H            5.73192983555215        0.76804773664328       -0.47386032307587
H            7.68905252660601        0.05934650517714        0.85836124998166
H            7.77327750157660       -2.23034600776459        1.77960295753629
H            5.90889571877996       -3.78909039004666        1.39818443077847
H            1.63617095237807       -3.87246635740495       -1.55822438727586
H           -0.56189095366549       -2.77025100949983       -1.56503503921521
H           -9.98580559806284       -3.55560018579049       -0.11600216561759
H          -10.72693522538191       -1.05661622591707       -0.02040076626122
H          -10.65675834405597        1.54756470239730        0.07848810493204
H           -9.78187470588505        4.00304048120740        0.17074841248493
H            0.57948716530695        0.42227337747175       -1.84858927414385
H            2.80455355136945        1.47029379601973       -1.89673260775930
H            2.49538608221589        4.26359913817257       -2.03839859942544
H            3.47816596610569        5.12815666201393       -4.11544219850383
