  42
        -65.25920559
 N          3.3278693718        3.0351322243        0.0714395436
 C          3.1546981814        1.8998479268        0.0295040467
 C          2.8279044224        0.5274110012       -0.0092286452
 C          3.7385701146       -0.4737921026        0.0051681908
 C          5.1819365330       -0.4039199420       -0.0003906744
 C          5.9041884007        0.7471966499       -0.3295192381
 C          7.2851813083        0.7359105256       -0.3172805850
 C          7.9759498113       -0.4169337395        0.0215058826
 C          7.2746834592       -1.5693376005        0.3405670209
 C          5.8951239710       -1.5654577799        0.3232959445
 C          1.3802668960        0.2615004123       -0.0165822229
 C          0.5014197497        1.1241745847        0.6396657409
 C         -0.8546370019        0.8754398910        0.6505105275
 C         -1.3788102938       -0.2377454773       -0.0060507929
 C         -2.8251261421       -0.5095490270       -0.0058458302
 C         -3.1461477011       -1.8836876573       -0.0460148074
 N         -3.3173529135       -3.0192079780       -0.0917581618
 C         -3.7429125227        0.4850543150       -0.0137070479
 C         -5.1856250795        0.3997215712        0.0062081069
 C         -5.9166157779        1.5435055421       -0.3394204222
 C         -7.2962909864        1.5293899454       -0.3417455207
 C         -7.9794078778        0.3772636996        0.0153823849
 C         -7.2705114981       -0.7574793429        0.3769467684
 C         -5.8894696027       -0.7510785066        0.3738064609
 C         -0.5000734610       -1.0993063085       -0.6641166418
 C          0.8558025340       -0.8504467744       -0.6751504895
 H          3.3414996201       -1.4804931572        0.0631411177
 H          5.3818491098        1.6474958098       -0.6092417046
 H          7.8266203716        1.6334323885       -0.5764746767
 H          9.0554736330       -0.4189647706        0.0315671802
 H          7.8065437380       -2.4728151359        0.5995460064
 H          5.3522840190       -2.4665952399        0.5724501667
 H          0.8913299090        1.9870164115        1.1596968524
 H         -1.5097289883        1.5399244741        1.1941183198
 H         -3.3554300707        1.4951859725       -0.0777148340
 H         -5.3879659564        2.4442386724       -0.6186698060
 H         -7.8425690667        2.4189789989       -0.6182308087
 H         -9.0589081299        0.3657240135        0.0179541727
 H         -7.7974693816       -1.6543734504        0.6663483994
 H         -5.3525185147       -1.6365396327        0.6726720487
 H         -0.8899737294       -1.9621380507       -1.1841688738
 H          1.5108230577       -1.5145813084       -1.2192679883
