  42
        -65.25920559
 N          3.3278693718        3.0351322243        0.0714395436
 C          3.1546981814        1.8998479268        0.0295040467
 C          2.8279044224        0.5274110012       -0.0092286452
 C          3.7385701146       -0.4737921026        0.0051681908
 C          5.1819365330       -0.4039199420       -0.0003906744
 C          5.9041884007        0.7471966499       -0.3295192381
 C          7.2851813083        0.7359105256       -0.3172805850
 C          7.9759498113       -0.4169337395        0.0215058826
 C          7.2746834592       -1.5693376005        0.3405670209
 C          5.8951239710       -1.5654577799        0.3232959445
 C          1.3802668960        0.2615004123       -0.0165822229
 C          0.5014197497        1.1241745847        0.6396657409
 C         -0.8546370019        0.8754398910        0.6505105275
 C         -1.3788102938       -0.2377454773       -0.0060507929
 C         -2.8251261421       -0.5095490270       -0.0058458302
 C         -3.1461477011       -1.8836876573       -0.0460148074
 N         -3.3173529135       -3.0192079780       -0.0917581618
 C         -3.7429125227        0.4850543150       -0.0137070479
 C         -5.1856250795        0.3997215712        0.0062081069
 C         -5.9166157779        1.5435055421       -0.3394204222
 C         -7.2962909864        1.5293899454       -0.3417455207
 C         -7.9794078778        0.3772636996        0.0153823849
 C         -7.2705114981       -0.7574793429        0.3769467684
 C         -5.8894696027       -0.7510785066        0.3738064609
 C         -0.5000734610       -1.0993063085       -0.6641166418
 C          0.8558025340       -0.8504467744       -0.6751504895
 H          3.3414996201       -1.4804931572        0.0631411177
 H          5.3818491098        1.6474958098       -0.6092417046
 H          7.8266203716        1.6334323885       -0.5764746767
 H          9.0554736330       -0.4189647706        0.0315671802
 H          7.8065437380       -2.4728151359        0.5995460064
 H          5.3522840190       -2.4665952399        0.5724501667
 H          0.8913299090        1.9870164115        1.1596968524
 H         -1.5097289883        1.5399244741        1.1941183198
 H         -3.3554300707        1.4951859725       -0.0777148340
 H         -5.3879659564        2.4442386724       -0.6186698060
 H         -7.8425690667        2.4189789989       -0.6182308087
 H         -9.0589081299        0.3657240135        0.0179541727
 H         -7.7974693816       -1.6543734504        0.6663483994
 H         -5.3525185147       -1.6365396327        0.6726720487
 H         -0.8899737294       -1.9621380507       -1.1841688738
 H          1.5108230577       -1.5145813084       -1.2192679883
  42
        -65.25909295
 N          3.2992250162        3.0535814776       -0.2750455525
 C          3.1434647055        1.9205042318       -0.1611771963
 C          2.8299176103        0.5521803778       -0.0191676300
 C          3.7405713961       -0.4466789231        0.0581370320
 C          5.1840254278       -0.3977949736        0.0410404040
 C          5.9309462909        0.7838125797       -0.0087251309
 C          7.3112223802        0.7418567591       -0.0249070805
 C          7.9792644274       -0.4722531950        0.0101786235
 C          7.2546535532       -1.6527316338        0.0638997567
 C          5.8756310392       -1.6164145989        0.0793366369
 C          1.3820435589        0.2849757626        0.0160325939
 C          0.8562730463       -0.7637601380        0.7701689720
 C         -0.4992914768       -1.0153115965        0.7761715569
 C         -1.3767431516       -0.2182306364        0.0399389617
 C         -2.8221014852       -0.4931432029        0.0529735814
 C         -3.1441886019       -1.8582927255        0.2153411255
 N         -3.3175350410       -2.9844542804        0.3649850986
 C         -3.7437026267        0.4939334883       -0.0344440124
 C         -5.1856108945        0.3919202295       -0.0644990828
 C         -5.8695535988       -0.7815125297       -0.3955756115
 C         -7.2503240196       -0.8064684690       -0.4143968754
 C         -7.9777406345        0.3316646120       -0.1039343273
 C         -7.3138604361        1.5058470039        0.2157942204
 C         -5.9344799092        1.5388581133        0.2269113063
 C         -0.8518744866        0.8340805435       -0.7098480080
 C          0.5037041552        1.0849789906       -0.7162876550
 H          3.3360036398       -1.4501636854        0.1231003093
 H          5.4291202040        1.7368459386       -0.0332535059
 H          7.8702113194        1.6648754375       -0.0650466808
 H          9.0584473808       -0.4981816346       -0.0032286251
 H          7.7679124139       -2.6024810425        0.0934876133
 H          5.3162045936       -2.5407654559        0.1196200598
 H          1.5090727736       -1.3751802230        1.3753222831
 H         -0.8898588104       -1.8289986485        1.3697978447
 H         -3.3641893321        1.5089535414       -0.0496183981
 H         -5.3168467663       -1.6695005530       -0.6567109371
 H         -7.7623068776       -1.7202201355       -0.6766704852
 H         -9.0569042061        0.3056372555       -0.1178510853
 H         -7.8749061235        2.3976540334        0.4527191173
 H         -5.4203038649        2.4561146458        0.4778917395
 H         -1.5060113995        1.4468686988       -1.3122098116
 H          0.8937086110        1.8988211071       -1.3100286379
  42
        -65.25904555
 N          3.4850809439        2.6968002647       -1.3662390542
 C          3.2456156920        1.6903022747       -0.8664500282
 C          2.8419551262        0.4772561518       -0.2678231550
 C          3.6927901844       -0.3937987468        0.3232160411
 C          5.1351394964       -0.3505403229        0.4078866317
 C          5.9358670751        0.4414297706       -0.4207805051
 C          7.3110226681        0.4214619516       -0.2930725744
 C          7.9174141638       -0.3834469043        0.6594280181
 C          7.1377051479       -1.1809927798        1.4826951768
 C          5.7639714265       -1.1709994519        1.3539808467
 C          1.3878176525        0.2535868281       -0.2875926831
 C          0.5037437314        1.3329852411       -0.2517797488
 C         -0.8598752994        1.1286638597       -0.2604012087
 C         -1.3854154636       -0.1622120220       -0.3137724816
 C         -2.8378797760       -0.3942359197       -0.3186689808
 C         -3.2342970123       -1.5532552394       -1.0226374917
 N         -3.4728765516       -2.5265802401       -1.5856367147
 C         -3.7011751096        0.4080925722        0.3460860977
 C         -5.1420353906        0.3126558107        0.4288998014
 C         -5.7869726403        0.9576790209        1.4915686710
 C         -7.1580924794        0.8909653428        1.6323226438
 C         -7.9187386272        0.1951900064        0.7044915945
 C         -7.2967912508       -0.4277637406       -0.3661619358
 C         -5.9238027505       -0.3723545250       -0.5064080864
 C         -0.5010362860       -1.2399905082       -0.3801612432
 C          0.8621034600       -1.0360983451       -0.3636246074
 H          3.2403129857       -1.2336175781        0.8375066237
 H          5.4795868866        1.0612406079       -1.1766967273
 H          7.9141907629        1.0387770248       -0.9428069628
 H          8.9925625792       -0.3926415134        0.7562714678
 H          7.6037887782       -1.8122840886        2.2240669462
 H          5.1596334066       -1.7970616339        1.9960752895
 H          0.8938274643        2.3396576900       -0.2130557447
 H         -1.5223312420        1.9815909192       -0.2512371664
 H         -3.2668353913        1.2074142679        0.9350972810
 H         -5.1969280479        1.4990145797        2.2182179328
 H         -7.6374029630        1.3840519596        2.4648782102
 H         -8.9918379151        0.1443791199        0.8118026575
 H         -7.8857207597       -0.9583443214       -1.0998816910
 H         -5.4554877669       -0.8439338423       -1.3550503797
 H         -0.8907520862       -2.2456566514       -0.4404420953
 H          1.5244719407       -1.8860261370       -0.4351042332
  42
        -65.25900355
 N          3.4596692223        2.0075494282        2.2048311263
 C          3.2265211469        1.2438671873        1.3786460176
 C          2.8401226728        0.3354412674        0.3684334502
 C          3.7167363729       -0.2596126659       -0.4740697272
 C          5.1608578660       -0.1874788213       -0.4802703300
 C          5.8354222299       -0.5429049468       -1.6548789786
 C          7.2127715250       -0.4962183618       -1.7223932179
 C          7.9497346785       -0.1113898888       -0.6130949679
 C          7.2974124775        0.2225536051        0.5631748814
 C          5.9185410907        0.1866665187        0.6333781738
 C          1.3877358248        0.1270058906        0.2705075078
 C          0.5008796550        1.1335517391        0.6568111509
 C         -0.8621271230        0.9419174630        0.5809027728
 C         -1.3872818758       -0.2654057041        0.1194392277
 C         -2.8394148506       -0.4881960257        0.0543195793
 C         -3.2217374057       -1.8388129385        0.2131488723
 N         -3.4463987970       -2.9598693478        0.3272731878
 C         -3.7193677305        0.5123130705       -0.1837200536
 C         -5.1634242705        0.4555415133       -0.2326452188
 C         -5.8458487383        1.4957660844       -0.8756687902
 C         -7.2235835318        1.4977122777       -0.9528153965
 C         -7.9531223046        0.4703759106       -0.3748470274
 C         -7.2929911889       -0.5553125811        0.2831615448
 C         -5.9138426060       -0.5666395331        0.3559155187
 C         -0.5002499418       -1.2778939281       -0.2508650196
 C          0.8626021074       -1.0849240900       -0.1785459002
 H          3.2928068879       -0.8479208126       -1.2792816390
 H          5.2641968387       -0.8443266670       -2.5217939761
 H          7.7155421492       -0.7653453436       -2.6394451085
 H          9.0276730216       -0.0793756202       -0.6628559863
 H          7.8670181837        0.5097366497        1.4343636771
 H          5.4256935003        0.4301412705        1.5607257326
 H          0.8886136833        2.0743119408        1.0194536306
 H         -1.5241042949        1.7290018230        0.9100558394
 H         -3.2996825982        1.4873960024       -0.4014390971
 H         -5.2807287978        2.2989107201       -1.3277541374
 H         -7.7326151304        2.3038376678       -1.4602689690
 H         -9.0312813514        0.4732375871       -0.4300776260
 H         -7.8564931261       -1.3509819532        0.7471507686
 H         -5.4150830062       -1.3604385620        0.8881147762
 H         -0.8877211512       -2.2249954332       -0.5967648182
 H          1.5244562962       -1.8949710175       -0.4465517869
  42
        -65.25894274
 N          3.2771187909        3.0225127864       -0.1003292048
 C          3.1295828592        1.8827377278       -0.0835960866
 C          2.8276415691        0.5050065540       -0.0259184678
 C          3.7517124865       -0.4821002578        0.0242799546
 C          5.1947190137       -0.3972260152        0.0188727212
 C          5.9079879082        0.7674573930       -0.2809411695
 C          7.2889023992        0.7689006467       -0.2659211941
 C          7.9899535050       -0.3844518739        0.0486440584
 C          7.2983739793       -1.5496477826        0.3405423766
 C          5.9188074193       -1.5585016808        0.3187712169
 C          1.3811111369        0.2285904356       -0.0104472993
 C          0.8515693204       -0.8529856054        0.6924052997
 C         -0.5055668500       -1.0973334531        0.6893887089
 C         -1.3803301503       -0.2608784662       -0.0050476501
 C         -2.8289703412       -0.5188905936        0.0092447446
 C         -3.1670758039       -1.8854112406        0.1141464082
 N         -3.3534524264       -3.0145020167        0.2178524782
 C         -3.7359751095        0.4849120948       -0.0245095657
 C         -5.1795108436        0.4104066031       -0.0390122849
 C         -5.8907807249       -0.7411408151       -0.3890072060
 C         -7.2717780650       -0.7391348354       -0.3891379402
 C         -7.9726815870        0.4048858150       -0.0416025027
 C         -7.2818612853        1.5579155024        0.2969777252
 C         -5.9020692416        1.5638696756        0.2907758301
 C         -0.8505546315        0.8187806644       -0.7111903873
 C          0.5060913766        1.0625895974       -0.7081904909
 H          3.3674412066       -1.4941041644        0.0767006733
 H          5.3793192980        1.6701498262       -0.5385523021
 H          7.8218491934        1.6775309414       -0.5030158209
 H          9.0693929659       -0.3762777657        0.0618539170
 H          7.8380722106       -2.4533349116        0.5818992178
 H          5.3849948855       -2.4708032463        0.5458144028
 H          1.5016771862       -1.4961046908        1.2667109390
 H         -0.8994097572       -1.9357754958        1.2452273594
 H         -3.3392119329        1.4930943634        0.0001194923
 H         -5.3589726369       -1.6335608090       -0.6765843901
 H         -7.8049245578       -1.6365465110       -0.6651067695
 H         -9.0522087620        0.3998836830       -0.0413273188
 H         -7.8222347319        2.4548904172        0.5610451163
 H         -5.3670122283        2.4654111263        0.5546949049
 H         -1.5022388831        1.4615021537       -1.2842422916
 H          0.8992979197        1.9015462195       -1.2636489358
  42
        -65.25885468
 N          3.3579581949        2.8909212116        0.8596975124
 C          3.1714275717        1.7985276537        0.5559034945
 C          2.8315823290        0.4835651264        0.1708509068
 C          3.7372360581       -0.4649700570       -0.1618313241
 C          5.1809986946       -0.3922626125       -0.1339235676
 C          5.9038500472       -1.3318575743       -0.8794158023
 C          7.2833979783       -1.3118479704       -0.8970148427
 C          7.9735262369       -0.3648014622       -0.1564107566
 C          7.2723265874        0.5586270894        0.6029363453
 C          5.8912889923        0.5493004562        0.6164706507
 C          1.3824467201        0.2367707398        0.1035712498
 C          0.5076392297        1.2601549422       -0.2625451145
 C         -0.8499596665        1.0328927896       -0.3416430477
 C         -1.3806438257       -0.2212859723       -0.0410327721
 C         -2.8280104941       -0.4826155319       -0.1095823170
 C         -3.1431465018       -1.8058507859       -0.4888275564
 N         -3.3031348669       -2.8893515290       -0.8356709327
 C         -3.7508414422        0.4725137943        0.1481150339
 C         -5.1940034802        0.3835053195        0.1190607284
 C         -5.9232602202        1.5790760893        0.0869907981
 C         -7.3023393658        1.5677028143        0.0424732704
 C         -7.9873294360        0.3624294759        0.0492036125
 C         -7.2807159984       -0.8286442651        0.1038092651
 C         -5.9000025294       -0.8230180881        0.1371113291
 C         -0.5048146238       -1.2437166071        0.3277545246
 C          0.8530511911       -1.0179070332        0.4036430682
 H          3.3402604051       -1.4004602350       -0.5384749292
 H          5.3690037294       -2.0717759291       -1.4584048658
 H          7.8242266072       -2.0384966955       -1.4851091457
 H          9.0529883582       -0.3512861458       -0.1651354952
 H          7.8051981102        1.2901993212        1.1917556082
 H          5.3590824406        1.2624496003        1.2252056062
 H          0.9018568965        2.2364671513       -0.5043449524
 H         -1.4992348488        1.8332916036       -0.6636142000
 H         -3.3706911087        1.4541019403        0.4050937897
 H         -5.3938684632        2.5218107864        0.0813797796
 H         -7.8466497925        2.4997247148        0.0052772249
 H         -9.0663977534        0.3516632933        0.0179179843
 H         -7.8090482527       -1.7703904628        0.1212182287
 H         -5.3658289035       -1.7575284479        0.1931686448
 H         -0.8981026948       -2.2200277094        0.5709840046
 H          1.5061896822       -1.8173269815        0.7208312344
  42
        -65.25882805
 N          3.4331925900        2.4976676737       -1.7356034230
 C          3.2177628787        1.5763502778       -1.0836045004
 C          2.8394447544        0.4478032147       -0.3250699855
 C          3.7017047401       -0.3539459292        0.3430769908
 C          5.1408748993       -0.2866158071        0.4529511259
 C          5.7960185011       -1.3575346176        1.0760560803
 C          7.1691915492       -1.3709774413        1.2089510482
 C          7.9228030491       -0.3091269408        0.7334690108
 C          7.2895750163        0.7639239280        0.1259915331
 C          5.9159233837        0.7790365800       -0.0158085901
 C          1.3871398829        0.2040454943       -0.3227808128
 C          0.4966519800        1.2753554740       -0.4108416571
 C         -0.8657825351        1.0652935221       -0.3964927993
 C         -1.3860189518       -0.2251359745       -0.2990321271
 C         -2.8381432504       -0.4622474584       -0.2750040968
 C         -3.2238376405       -1.6967573478       -0.8409108401
 N         -3.4472573134       -2.7236826812       -1.3054119039
 C         -3.6997862698        0.4178269914        0.2871623338
 C         -5.1397873571        0.3568523398        0.3915679594
 C         -5.7708581895        1.2449100708        1.2724716083
 C         -7.1419925042        1.2382976990        1.4258531359
 C         -7.9181097263        0.3531446891        0.6939137816
 C         -7.3106094205       -0.5200258681       -0.1946209141
 C         -5.9380873423       -0.5213620564       -0.3479218663
 C         -0.4956513679       -1.2985673078       -0.2424885651
 C          0.8666651235       -1.0878992875       -0.2517363361
 H          3.2579378617       -1.1800959327        0.8864249161
 H          5.2139248447       -2.1885832567        1.4496587020
 H          7.6550513565       -2.2092130949        1.6862366403
 H          8.9972228323       -0.3162649021        0.8385858758
 H          7.8705026136        1.5969842135       -0.2407758110
 H          5.4404727262        1.6243807837       -0.4848685287
 H          0.8805834429        2.2821878533       -0.4875707748
 H         -1.5308124136        1.9112471345       -0.4872899463
 H         -3.2561095551        1.2848004226        0.7626813459
 H         -5.1699671499        1.9369443020        1.8459953255
 H         -7.6093177914        1.9262327922        2.1147831657
 H         -8.9912914764        0.3477905549        0.8111221904
 H         -7.9108333260       -1.2049312848       -0.7747042069
 H         -5.4826639003       -1.1970879046       -1.0530559871
 H         -0.8797674838       -2.3066924837       -0.1873957295
 H          1.5306873391       -1.9391293680       -0.2305215734
  42
        -65.25877972
 N          3.6486013369        1.3759708051        2.6021468915
 C          3.3385848691        0.8691873641        1.6187198059
 C          2.8542717418        0.2373993511        0.4524650558
 C          3.6486530513       -0.2185478711       -0.5433236953
 C          5.0834970432       -0.1059650740       -0.6845358269
 C          5.8534547620        0.8392088205       -0.0006118021
 C          7.2203920667        0.8994913167       -0.1898374315
 C          7.8481895466        0.0226521006       -1.0602505924
 C          7.0967267811       -0.9134361221       -1.7538686840
 C          5.7297747067       -0.9717940799       -1.5756489181
 C          1.3928132684        0.0669853301        0.4304644334
 C          0.6834462686        0.1177815657       -0.7692467722
 C         -0.6868367835       -0.0340103694       -0.7835043240
 C         -1.3924607731       -0.2402425241        0.4015962521
 C         -2.8569284578       -0.3871576641        0.3958115868
 C         -3.3482799301       -1.2545937084        1.3954263140
 N         -3.6655722401       -1.9665559572        2.2396983047
 C         -3.6414327457        0.2975826822       -0.4685096504
 C         -5.0785339862        0.2682808710       -0.6217258380
 C         -5.6837813952        1.3072875939       -1.3400333097
 C         -7.0514623195        1.3432709951       -1.5184587177
 C         -7.8461079426        0.3340935767       -0.9974247759
 C         -7.2602405391       -0.7110383238       -0.3006363211
 C         -5.8925538054       -0.7478662411       -0.1123659374
 C         -0.6817476824       -0.3032595631        1.6006165735
 C          0.6871890226       -0.1396878616        1.6162107026
 H          3.1610763358       -0.7775582379       -1.3335483853
 H          5.3765011941        1.5394479466        0.6658770787
 H          7.7989394012        1.6385074122        0.3440633813
 H          8.9171846826        0.0723969725       -1.2026663566
 H          7.5796804986       -1.5951945661       -2.4382456463
 H          5.1471962151       -1.7035840089       -2.1177854879
 H          1.2067538712        0.2977081980       -1.6969994948
 H         -1.2135238833       -0.0080923702       -1.7263858251
 H         -3.1364812395        0.9996969259       -1.1222353538
 H         -5.0680527201        2.0973079945       -1.7470088247
 H         -7.5007488651        2.1573431625       -2.0677901039
 H         -8.9160250453        0.3586366628       -1.1390959041
 H         -7.8733727955       -1.5052689346        0.0981518844
 H         -5.4503139439       -1.5745157854        0.4193910133
 H         -1.2122729774       -0.4667719883        2.5269506151
 H          1.2211665362       -0.1822568022        2.5540017415
  42
        -65.25865338
 N          3.8458866066       -0.9840772128       -2.7086623705
 C          3.4549437157       -0.5837434285       -1.7052907470
 C          2.8766006442       -0.1252393968       -0.5016874210
 C          3.5929743502        0.2423134735        0.5861878779
 C          5.0267390126        0.3267742324        0.7510937776
 C          5.9271504889        0.3808775318       -0.3170089070
 C          7.2855645120        0.4718547609       -0.0848927190
 C          7.7762208764        0.5105585518        1.2107050813
 C          6.8956294279        0.4684321122        2.2804174813
 C          5.5371261089        0.3856012150        2.0540926095
 C          1.4054867251       -0.1295208127       -0.5040081650
 C          0.6831665596        0.8095428947        0.2326656567
 C         -0.6953212797        0.7964902155        0.2323275984
 C         -1.3987798777       -0.1555249843       -0.5056505844
 C         -2.8695160175       -0.1814280956       -0.5033358359
 C         -3.4403853967       -0.6480308964       -1.7077257509
 N         -3.8276327411       -1.0530324239       -2.7105025338
 C         -3.5950984514        0.1606964746        0.5862746456
 C         -5.0321491502        0.1998544424        0.7438612039
 C         -5.5549411304        0.1778137042        2.0427384870
 C         -6.9175593340        0.2034115038        2.2582600153
 C         -7.7894359637        0.2706306944        1.1827031437
 C         -7.2863727690        0.3166531856       -0.1078457625
 C         -5.9235984150        0.2816950360       -0.3296641700
 C         -0.6769338687       -1.0776015748       -1.2647125110
 C          0.7017019503       -1.0651010703       -1.2636346464
 H          3.0259783773        0.4770084982        1.4795186205
 H          5.5597531217        0.3688364926       -1.3302257978
 H          7.9661163032        0.5158917658       -0.9219730732
 H          8.8391847654        0.5799187877        1.3859241039
 H          7.2709971616        0.5047787851        3.2923917483
 H          4.8539769337        0.3527740383        2.8914066319
 H          1.2044212038        1.5764721577        0.7867321488
 H         -1.2317950509        1.5525493775        0.7868925211
 H         -3.0373394556        0.4019200490        1.4835481234
 H         -4.8783009653        0.1243178446        2.8842062644
 H         -7.3031227478        0.1751026505        3.2666436731
 H         -8.8556824840        0.2943042801        1.3499182476
 H         -7.9604433676        0.3824071945       -0.9487207425
 H         -5.5461354954        0.3356096176       -1.3379851370
 H         -1.2047258436       -1.8145295997       -1.8517708194
 H          1.2434944877       -1.7922004254       -1.8501809471
  42
        -65.25857936
 N          3.6774138632        1.5990644232        2.5703213754
 C          3.3643683839        1.0369866657        1.6175146621
 C          2.8665333364        0.3697703505        0.4784690910
 C          3.6300547284       -0.1537515764       -0.5093031159
 C          5.0647075309       -0.1659848343       -0.6762466764
 C          5.9643329545        0.4536767004        0.1971809230
 C          7.3244812296        0.3868148248       -0.0323435293
 C          7.8202612216       -0.2933272183       -1.1336203833
 C          6.9424347494       -0.9091180651       -2.0120057942
 C          5.5828889408       -0.8463576880       -1.7866645125
 C          1.3983846130        0.2533514906        0.4597208608
 C          0.6863064603        0.2887185282       -0.7387675228
 C         -0.6838489335        0.1367795982       -0.7487129584
 C         -1.3890733497       -0.0508964382        0.4400866229
 C         -2.8466457613       -0.2478503416        0.4319651183
 C         -3.3199189352       -1.0640629998        1.4831354180
 N         -3.6259392488       -1.7188971859        2.3760243076
 C         -3.6550719885        0.3366540788       -0.4824303143
 C         -5.0845651176        0.1942875619       -0.6492457921
 C         -5.7679541017        1.1739956814       -1.3798985148
 C         -7.1308407759        1.0876732671       -1.5777476192
 C         -7.8402226762        0.0121375235       -1.0662323266
 C         -7.1745139212       -0.9759194236       -0.3582490839
 C         -5.8120187026       -0.8897596598       -0.1494426213
 C         -0.6779963829       -0.0718552465        1.6407398765
 C          0.6913384142        0.0887430846        1.6512712172
 H          3.0930279113       -0.6717957546       -1.2957193285
 H          5.5970768782        0.9885086755        1.0571127572
 H          8.0033839549        0.8695805173        0.6546068452
 H          8.8847003699       -0.3426104787       -1.3067094023
 H          7.3208537261       -1.4390582904       -2.8735474036
 H          4.9034385583       -1.3299277833       -2.4747836156
 H          1.2073666903        0.4497953459       -1.6712733391
 H         -1.2091588238        0.1413757896       -1.6925793967
 H         -3.1882541447        1.0315368407       -1.1706558621
 H         -5.2182770091        2.0142637047       -1.7806207259
 H         -7.6427795899        1.8566817306       -2.1370936418
 H         -8.9055244666       -0.0598297781       -1.2256478094
 H         -7.7196403479       -1.8227134203        0.0310110016
 H         -5.3043482593       -1.6752967144        0.3866525677
 H         -1.2072751669       -0.2095900661        2.5719567202
 H          1.2251298724        0.0684902696        2.5899196457
  42
        -65.25842107
 N          3.9014402924       -2.5808117267        1.1906965675
 C          3.4831746304       -1.5964682559        0.7711052746
 C          2.8777615388       -0.4290930420        0.2565915459
 C          3.5713681633        0.6075389842       -0.2682043454
 C          5.0027604980        0.7954151885       -0.3505404853
 C          5.9174668731        0.1204689840        0.4629261876
 C          7.2728548763        0.3542592066        0.3365271117
 C          7.7452229615        1.2602360404       -0.5999139649
 C          6.8496908538        1.9455838159       -1.4061534590
 C          5.4940648115        1.7233542474       -1.2771128315
 C          1.4070426219       -0.4527242586        0.2762589851
 C          0.6733953156        0.7216907472        0.4438955898
 C         -0.7049369606        0.6972602363        0.4460730266
 C         -1.3970371631       -0.5020535969        0.2784284854
 C         -2.8690392931       -0.5404120392        0.2568161660
 C         -3.4083441049       -1.7247343273        0.8036005783
 N         -3.7584647076       -2.7074996214        1.2861580659
 C         -3.6040281732        0.4793568813       -0.2453165531
 C         -5.0372359506        0.6289912762       -0.3538346243
 C         -5.5320376867        1.8737272558       -0.7662144084
 C         -6.8883822563        2.0954485626       -0.8868349046
 C         -7.7855595649        1.0756073889       -0.6097850990
 C         -7.3124805781       -0.1652154126       -0.2123225524
 C         -5.9559883262       -0.3902273669       -0.0833042926
 C         -0.6627224712       -1.6811337071        0.1429763853
 C          0.7158824778       -1.6573228374        0.1426261967
 H          2.9873684604        1.3961495648       -0.7284778523
 H          5.5631070513       -0.5739427478        1.2075500158
 H          7.9653668608       -0.1728715838        0.9755869481
 H          8.8059272321        1.4364604279       -0.6964703871
 H          7.2110694515        2.6574939078       -2.1334201042
 H          4.7986296322        2.2592962837       -1.9079909796
 H          1.1864964091        1.6588108471        0.6037703668
 H         -1.2482975997        1.6162673359        0.6101317054
 H         -3.0439584613        1.3221334147       -0.6339716374
 H         -4.8375672612        2.6732654147       -0.9846731826
 H         -7.2492265563        3.0640625759       -1.2000611352
 H         -8.8472112285        1.2456571138       -0.7069092778
 H         -8.0059127581       -0.9658945045       -0.0019515084
 H         -5.6062673654       -1.3632372373        0.2193957640
 H         -1.1805576429       -2.6217204086        0.0269431677
 H          1.2671367181       -2.5787920635        0.0270110557
  42
        -65.25832241
 N          3.8688592627       -2.2980937433        1.6683701094
 C          3.4681523469       -1.4037552979        1.0687816031
 C          2.8788782334       -0.3479997795        0.3388003185
 C          3.5877202176        0.5653393389       -0.3641702512
 C          5.0226874829        0.7101754645       -0.4725682207
 C          5.9230123990        0.1825936086        0.4574720339
 C          7.2832791061        0.3559465672        0.2924903209
 C          7.7750247527        1.0554542224       -0.7981869841
 C          6.8940925976        1.5968590995       -1.7214295191
 C          5.5337634117        1.4347221359       -1.5563536328
 C          1.4078439121       -0.3590374319        0.3512099100
 C          0.6773256514        0.8276777229        0.2922142745
 C         -0.7014344617        0.8073836133        0.2926394993
 C         -1.3967667595       -0.4003339122        0.3493344610
 C         -2.8681584201       -0.4466398999        0.3295006220
 C         -3.4093125818       -1.5158568364        1.0767403170
 N         -3.7682845662       -2.3876991294        1.7334982854
 C         -3.6127380707        0.4656563611       -0.3368335602
 C         -5.0496416864        0.5567795359       -0.4728066376
 C         -5.5880279683        1.7593551837       -0.9482935518
 C         -6.9505493698        1.9167533705       -1.0986683441
 C         -7.8079963829        0.8706724530       -0.7953442453
 C         -7.2897031360       -0.3320064677       -0.3420248106
 C         -5.9274086903       -0.4912386275       -0.1798730421
 C         -0.6652014619       -1.5858443181        0.4369852060
 C          0.7131095192       -1.5659066917        0.4387507417
 H          3.0171688649        1.2627119279       -0.9666142551
 H          5.5542188746       -0.3486034480        1.3199756850
 H          7.9642149855       -0.0564469974        1.0219073915
 H          8.8394438744        1.1841052951       -0.9243852758
 H          7.2707414995        2.1494401710       -2.5694192202
 H          4.8501344792        1.8570250768       -2.2796225314
 H          1.1929226955        1.7768974523        0.2758786956
 H         -1.2420015441        1.7424474289        0.2791805677
 H         -3.0681294406        1.2509420452       -0.8480423081
 H         -4.9240102858        2.5783851426       -1.1879162442
 H         -7.3470099635        2.8548584146       -1.4581126902
 H         -8.8739548368        0.9899307725       -0.9175894895
 H         -7.9515072094       -1.1543290505       -0.1144084386
 H         -5.5401273919       -1.4374710663        0.1605769038
 H         -1.1853323434       -2.5305254600        0.4946652162
 H          1.2616376732       -2.4942754535        0.4979572932
  42
        -65.25831621
 N          3.6340666350        1.2577407712        2.7245730613
 C          3.3390587934        0.7965314380        1.7141541290
 C          2.8615504951        0.2590057312        0.4997581318
 C          3.6433904434       -0.1050442381       -0.5432221811
 C          5.0802394070       -0.0588985337       -0.6901119591
 C          5.9655267597        0.2527206913        0.3466461061
 C          7.3286091675        0.2684353811        0.1252260822
 C          7.8413266156       -0.0218171624       -1.1293073278
 C          6.9780752654       -0.3363422400       -2.1671928994
 C          5.6159255809       -0.3601055418       -1.9495176751
 C          1.3955718779        0.1210596781        0.4591412466
 C          0.6810878192        0.2929331417       -0.7258270887
 C         -0.6887774983        0.1371589331       -0.7520510815
 C         -1.3915559501       -0.1911846982        0.4067331165
 C         -2.8536868865       -0.3677671853        0.3950426067
 C         -3.3028176977       -1.3533440712        1.3004362726
 N         -3.5739811093       -2.1865752145        2.0439545477
 C         -3.6602457278        0.3458709018       -0.4243476348
 C         -5.0965230615        0.3002824173       -0.5805192661
 C         -5.6567624998        0.9919762592       -1.6626454730
 C         -7.0186841537        0.9840358018       -1.8831774984
 C         -7.8575180093        0.2965662685       -1.0200288080
 C         -7.3209877344       -0.3797295639        0.0642146473
 C         -5.9576496190       -0.3815865636        0.2848064822
 C         -0.6768761349       -0.3601612751        1.5933335111
 C          0.6915898776       -0.1955490678        1.6214908104
 H          3.1254392999       -0.5033243793       -1.4081630039
 H          5.5854529946        0.4731870729        1.3302211855
 H          7.9961867501        0.5077891222        0.9394461650
 H          8.9077738131       -0.0063073866       -1.2963111940
 H          7.3701636146       -0.5658548478       -3.1469306157
 H          4.9480612961       -0.6072056437       -2.7630787698
 H          1.1984986702        0.5674522447       -1.6334813812
 H         -1.2144200390        0.2520058230       -1.6886885378
 H         -3.1689998350        1.0649254581       -1.0696723868
 H         -5.0079229938        1.5309702661       -2.3390128283
 H         -7.4297765067        1.5171672002       -2.7276156210
 H         -8.9238054170        0.2917509592       -1.1886881324
 H         -7.9698680203       -0.9101401506        0.7450304936
 H         -5.5590158025       -0.9051541493        1.1378194711
 H         -1.2029982016       -0.6135483874        2.5018068965
 H          1.2268106188       -0.3284191710        2.5500593488
  42
        -65.25825269
 N          3.8375356328        2.7330588208        1.1661399625
 C          3.4430349404        1.7669894233        0.6852289268
 C          2.8647937938        0.6023487222        0.1353010440
 C          3.5748445883       -0.4757303059       -0.2714248242
 C          5.0061653463       -0.6759909198       -0.2941156387
 C          5.9377538449        0.3635628494       -0.2190019667
 C          7.2922506206        0.0936911046       -0.2420709251
 C          7.7476637296       -1.2116927832       -0.3396532767
 C          6.8363281044       -2.2525302653       -0.4278241286
 C          5.4822900619       -1.9879517565       -0.4135288295
 C          1.3939812394        0.6171091392        0.1008254880
 C          0.6710485335        1.2993835726        1.0800047228
 C         -0.7076464898        1.2756439030        1.0810628331
 C         -1.4096418045        0.5701530841        0.1027307513
 C         -2.8800933997        0.5104215510        0.1488033145
 C         -3.4819179845        1.6741312411        0.6742486891
 N         -3.8937839144        2.6665692890        1.0770405538
 C         -3.5658664410       -0.5744047756       -0.2803327378
 C         -4.9901592396       -0.8231833527       -0.2851441179
 C         -5.4640485050       -1.8946728388       -1.0528573183
 C         -6.8108911676       -2.1895951182       -1.1048889804
 C         -7.7155146006       -1.4338089923       -0.3755974757
 C         -7.2603525307       -0.3822992164        0.4040946498
 C         -5.9144858165       -0.0754672575        0.4503845235
 C         -0.6868053660       -0.0699158719       -0.9038453417
 C          0.6914839263       -0.0475821568       -0.9043914211
 H          2.9989798544       -1.3389821747       -0.5846336224
 H          5.5987893636        1.3848921155       -0.1576970083
 H          7.9977191301        0.9090273706       -0.1844689929
 H          8.8075600580       -1.4167381707       -0.3523781330
 H          7.1844184740       -3.2714529609       -0.5111151914
 H          4.7749710496       -2.8028059253       -0.4814744666
 H          1.1976187920        1.8389384993        1.8533591463
 H         -1.2504134257        1.7980967288        1.8550096199
 H         -2.9726021587       -1.3919609739       -0.6738625101
 H         -4.7627967084       -2.4880028301       -1.6231646770
 H         -7.1580385376       -3.0125153791       -1.7119973956
 H         -8.7689978636       -1.6670486962       -0.4096579501
 H         -7.9587551722        0.2016736432        0.9846480498
 H         -5.5747037000        0.7337840711        1.0756203760
 H         -1.2064753629       -0.5695264225       -1.7083475647
 H          1.2283356945       -0.5322350320       -1.7068824108
