  42
  -65.0280321981000       0.150093791312836      !
 N          3.8286095047       -2.9013284880        0.1419360926
 C          3.4444577174       -1.8211132909        0.0683111640
 C          2.8739751396       -0.5314816981       -0.0007366808
 C          3.5966984859        0.6128192667       -0.0030457052
 C          5.0316932743        0.7879676353       -0.0140769799
 C          5.9313771922       -0.2153760261       -0.3860738665
 C          7.2912041196        0.0260919988       -0.3833609814
 C          7.7840168567        1.2669014139       -0.0114162100
 C          6.9043164603        2.2753877205        0.3499466781
 C          5.5445187842        2.0419556958        0.3412897299
 C          1.4029377850       -0.5269789813       -0.0158597143
 C          0.6944391308        0.4689206781       -0.6885326758
 C         -0.6840978374        0.4720767804       -0.6935402804
 C         -1.4014225114       -0.5212953963       -0.0268651207
 C         -2.8723708819       -0.5191060324       -0.0199934117
 C         -3.4511044272       -1.8057216404        0.0420779181
 N         -3.8451327760       -2.8825692719        0.1105531549
 C         -3.5918128808        0.6268236663       -0.0157007224
 C         -5.0279913291        0.7966277466       -0.0219951536
 C         -5.5493557607        2.0272203483        0.3959766436
 C         -6.9112186579        2.2474721053        0.4215061977
 C         -7.7834875157        1.2508024621        0.0124749970
 C         -7.2815123295        0.0356843289       -0.4259494113
 C         -5.9196290386       -0.1934614968       -0.4445373266
 C         -0.6931953372       -1.5331948905        0.6227005736
 C          0.6854830258       -1.5358201623        0.6284647063
 H          3.0341098543        1.5379427159        0.0443530175
 H          5.5625403886       -1.1801723480       -0.6940702128
 H          7.9712103717       -0.7595907974       -0.6767677956
 H          8.8480531150        1.4491872446       -0.0095468847
 H          7.2814526167        3.2465105341        0.6345564698
 H          4.8620685085        2.8313574031        0.6240825108
 H          1.2268160678        1.2309787261       -1.2387316440
 H         -1.2094976840        1.2370113378       -1.2465338982
 H         -3.0296579040        1.5515768653        0.0408404761
 H         -4.8724205787        2.8067185570        0.7167772709
 H         -7.2958283451        3.1992531821        0.7568959842
 H         -8.8490951917        1.4229216521        0.0285447513
 H         -7.9557103138       -0.7394561629       -0.7581839512
 H         -5.5427699422       -1.1371836554       -0.8043454963
 H         -1.2317426554       -2.3172553082        1.1340524950
 H          1.2165545856       -2.3221850004        1.1440638998
  42
  -65.0279435835000       0.136659012248494      !
 N          3.6692849178       -2.3505475467        1.7285919819
 C          3.3515294296       -1.4625723643        1.0723907748
 C          2.8575860867       -0.4142767905        0.2655687345
 C          3.6448697058        0.4915968643       -0.3590128822
 C          5.0812372509        0.6459300891       -0.2925105184
 C          5.8654808139        0.1240670375        0.7402341939
 C          7.2331529615        0.3173690821        0.7483044684
 C          7.8475180306        1.0310792232       -0.2684399212
 C          7.0819036971        1.5639485869       -1.2940852980
 C          5.7142446930        1.3818189828       -1.3020581109
 C          1.3937143463       -0.4169978732        0.1157089368
 C          0.6850657641        0.7765307137       -0.0199209786
 C         -0.6873584170        0.7690022818       -0.1515070799
 C         -1.3958920033       -0.4321968383       -0.1504474419
 C         -2.8624153317       -0.4470628902       -0.2744290861
 C         -3.3667242969       -1.5739803715       -0.9591411578
 N         -3.6946589157       -2.5226206270       -1.5185161655
 C         -3.6365652328        0.5195108148        0.2712766260
 C         -5.0739620540        0.6692694895        0.2387729417
 C         -5.6635000685        1.5493439015        1.1551456709
 C         -7.0304996034        1.7344904957        1.1818767845
 C         -7.8402647095        1.0572259410        0.2835615322
 C         -7.2701995018        0.1974240252       -0.6420851494
 C         -5.9032058576        0.0024269781       -0.6680382332
 C         -0.6860824433       -1.6270467946       -0.0270053660
 C          0.6851739023       -1.6189061497        0.1164392066
 H          3.1488053077        1.1808486786       -1.0324598020
 H          5.3992483741       -0.4177232596        1.5471527486
 H          7.8228727585       -0.0897747524        1.5560026451
 H          8.9171278103        1.1771836659       -0.2586514676
 H          7.5544132294        2.1263956797       -2.0857914970
 H          5.1206026209        1.7982795402       -2.1039159248
 H          1.2109340170        1.7199787225       -0.0020887186
 H         -1.2136962832        1.7046601941       -0.2723759785
 H         -3.1211210365        1.2781178687        0.8493167183
 H         -5.0359344920        2.0786496451        1.8586227363
 H         -7.4674790610        2.4106904619        1.9016958069
 H         -8.9097035568        1.2035366566        0.3005734352
 H         -7.8952335470       -0.3244998754       -1.3510938547
 H         -5.4734644781       -0.6584769031       -1.4030344410
 H         -1.2189193940       -2.5663922184       -0.0287708907
 H          1.2185488857       -2.5522841696        0.2199415322
  42
  -65.0278132818000       0.119057226768938      !
 N          3.3690252970        0.9926591066       -2.8206634378
 C          3.1803396878        0.6010409209       -1.7568729411
 C          2.8348171363        0.1396289979       -0.4686219171
 C          3.7317674332       -0.1627120609        0.4988474497
 C          5.1759438507       -0.1541753046        0.4488350857
 C          5.9133948288       -0.1133353381       -0.7384058048
 C          7.2941202218       -0.1127550731       -0.7065369412
 C          7.9695460639       -0.1526732135        0.5030885252
 C          7.2530480718       -0.2035968674        1.6886881938
 C          5.8736484942       -0.2112692408        1.6623127372
 C          1.3836808806        0.0579380076       -0.2363568230
 C          0.5175245997        0.9545158392       -0.8633830690
 C         -0.8417817979        0.8949580958       -0.6406377804
 C         -1.3819298391       -0.0720785870        0.2067654408
 C         -2.8318151041       -0.1484232009        0.4469965022
 C         -3.1715910514       -0.6117605326        1.7364910489
 N         -3.3583190068       -1.0070821578        2.7993473710
 C         -3.7359669430        0.1581184931       -0.5122589847
 C         -5.1796817646        0.1584206022       -0.4430835935
 C         -5.8954583872        0.1892403402       -1.6467289830
 C         -7.2751996718        0.1901840260       -1.6513586941
 C         -7.9734969132        0.1754299227       -0.4539668646
 C         -7.2796686903        0.1626867453        0.7457600467
 C         -5.8986730812        0.1541439354        0.7560409532
 C         -0.5158710339       -0.9700378287        0.8321673074
 C          0.8432560815       -0.9106200155        0.6092423534
 H          3.3210855344       -0.4181961468        1.4686624378
 H          5.4030160055       -0.0966567184       -1.6875405954
 H          7.8474086897       -0.0832399439       -1.6332969205
 H          9.0489539892       -0.1496398579        0.5216994324
 H          7.7728768478       -0.2410316430        2.6345178874
 H          5.3188970023       -0.2514428917        2.5893718624
 H          0.9198328719        1.7147386207       -1.5169637327
 H         -1.4870512669        1.6216761139       -1.1114911953
 H         -3.3348332220        0.4089846390       -1.4873300218
 H         -5.3549401098        0.2007604527       -2.5829331824
 H         -7.8096568580        0.2067430305       -2.5896091165
 H         -9.0530499400        0.1801881048       -0.4557542569
 H         -7.8184297306        0.1619997918        1.6814913247
 H         -5.3734568100        0.1601908261        1.6972050302
 H         -0.9181693059       -1.7302776062        1.4857319481
 H          1.4884582076       -1.6377133676        1.0796038017
  42
  -65.0276141415000       9.643556224513547E-002 !
 N          3.4813211083        0.3201744809        2.9391729742
 C          3.2398696029        0.1813204165        1.8244662221
 C          2.8436034465        0.0330844308        0.4768497745
 C          3.7137042498        0.0309009660       -0.5601035471
 C          5.1585328668        0.0801698343       -0.5323281615
 C          5.8292694332        0.4678486888       -1.6988991423
 C          7.2070563396        0.5326647234       -1.7353821890
 C          7.9480923559        0.1941505545       -0.6137654850
 C          7.2993599772       -0.2121721908        0.5415272904
 C          5.9201696507       -0.2697518435        0.5864863107
 C          1.3890208485       -0.0664602635        0.2851659926
 C          0.5132559117        0.5358274050        1.1902429261
 C         -0.8517694529        0.4363444180        1.0256763928
 C         -1.3901317702       -0.2728579854       -0.0483642554
 C         -2.8446220035       -0.4031573851       -0.2217035180
 C         -3.2418040177       -1.5908677909       -0.8752735335
 N         -3.4788029766       -2.5672459095       -1.4327516371
 C         -3.7134840169        0.5571531006        0.1718456683
 C         -5.1580727269        0.5524322563        0.1081499486
 C         -5.8289380291        1.7787324283        0.1940409283
 C         -7.2065597217        1.8375923108        0.1411019631
 C         -7.9474233391        0.6723326863        0.0186871944
 C         -7.2986916416       -0.5506527862       -0.0464201929
 C         -5.9197590277       -0.6146033683       -0.0025177601
 C         -0.5142581892       -0.8892838732       -0.9438796859
 C          0.8506275382       -0.7866261122       -0.7814559911
 H          3.2834109316        0.0242513613       -1.5545844920
 H          5.2548533488        0.7318022932       -2.5758653734
 H          7.7069320029        0.8423577439       -2.6411450483
 H          9.0263230654        0.2394077067       -0.6424442396
 H          7.8719993001       -0.4901800762        1.4137030187
 H          5.4299329796       -0.6063900321        1.4856497738
 H          0.9112824017        1.0868579012        2.0297769084
 H         -1.5050784536        0.8912859504        1.7552467176
 H         -3.2830687703        1.4732443753        0.5589417910
 H         -5.2549642801        2.6898912139        0.2895753038
 H         -7.7066337345        2.7930531750        0.2001016243
 H         -9.0254796912        0.7164940062       -0.0177794753
 H         -7.8709664759       -1.4626655283       -0.1279337188
 H         -5.4298233556       -1.5743305891       -0.0341529495
 H         -0.9120934556       -1.4552100769       -1.7734798923
 H          1.5035543109       -1.2957993411       -1.4746250901
  42
  -65.0275302095000       8.823984577165951E-002 !
 N          3.3098490558       -2.9500802730       -0.4765319232
 C          3.1499065399       -1.8300449115       -0.2738666493
 C          2.8329751042       -0.4702869451       -0.0658974800
 C          3.7462381670        0.5178445088        0.0767685913
 C          5.1900836845        0.4489510046        0.0687361755
 C          5.9160023141       -0.7439689011        0.1402383991
 C          7.2968503160       -0.7277283748        0.1280911779
 C          7.9852909221        0.4720354045        0.0428714999
 C          7.2810549431        1.6641663740       -0.0207194719
 C          5.9014742005        1.6539122823       -0.0005180770
 C          1.3835193261       -0.2115454625       -0.0308787536
 C          0.8422144367        0.9793750299       -0.5134970719
 C         -0.5175027263        1.2040468554       -0.4663233185
 C         -1.3830897882        0.2402533373        0.0523005589
 C         -2.8344547117        0.4806866348        0.0849290971
 C         -3.1874269642        1.8381482609        0.2443244048
 N         -3.3860931466        2.9640266338        0.3595060553
 C         -3.7304710913       -0.5204795214       -0.0770518135
 C         -5.1747324627       -0.4655985319       -0.0514787658
 C         -5.8984967211        0.5893660810        0.5121502868
 C         -7.2793902804        0.5726063006        0.5090226307
 C         -7.9677975861       -0.4905458181       -0.0536787377
 C         -7.2644653308       -1.5493808574       -0.6064343963
 C         -5.8846901696       -1.5416637981       -0.5986272798
 C         -0.8415720276       -0.9494170551        0.5385169471
 C          0.5176491324       -1.1735685311        0.4914622914
 H          3.3509654161        1.5168443465        0.2193274627
 H          5.3972025717       -1.6849684482        0.2181762180
 H          7.8396672843       -1.6592537022        0.1869593626
 H          9.0647551295        0.4780993973        0.0305784499
 H          7.8108731275        2.6031309652       -0.0824926120
 H          5.3577517462        2.5870958614       -0.0488179366
 H          1.4852675972        1.7279327276       -0.9519185228
 H         -0.9204656122        2.1295457905       -0.8511954188
 H         -3.3227502814       -1.5007638951       -0.2944578473
 H         -5.3764353972        1.4153716296        0.9672335016
 H         -7.8222749517        1.3943574795        0.9514623742
 H         -9.0473152087       -0.4971273673       -0.0552292704
 H         -7.7950414423       -2.3844730534       -1.0393420779
 H         -5.3398498776       -2.3697664032       -1.0300335902
 H         -1.4862058351       -1.6973601295        0.9757813675
 H          0.9199812897       -2.0995060070        0.8758609247
  42
  -65.0274650979000       8.236477584247674E-002 !
 N          3.8352457106       -2.8847253629        0.0448953123
 C          3.4475145474       -1.8033474243        0.0590361399
 C          2.8735648502       -0.5128755186        0.0584220800
 C          3.5955149738        0.6293702862       -0.0114024578
 C          5.0324200279        0.7929926430       -0.0311575926
 C          5.9251687700       -0.1785677175        0.4303319454
 C          7.2877839244        0.0414479146        0.3806450135
 C          7.7894310261        1.2290118979       -0.1280235380
 C          6.9162770268        2.2079016754       -0.5762582736
 C          5.5537635675        1.9970855685       -0.5201549790
 C          1.4025298024       -0.5114492076        0.0749040759
 C          0.6894417158        0.5095194021        0.7030431940
 C         -0.6894675833        0.5089827002        0.7036245747
 C         -1.4023852689       -0.5110046417        0.0738173500
 C         -2.8743021239       -0.5204439307        0.0437721159
 C         -3.4308521295       -1.8182915598        0.0606086486
 N         -3.8023744289       -2.9043620912        0.1127898744
 C         -3.6056236924        0.6175706998        0.0159147924
 C         -5.0410750922        0.7867220220       -0.0325745958
 C         -5.5619277179        2.0538674270        0.2593001163
 C         -6.9220386930        2.2849407536        0.2357503788
 C         -7.7946242415        1.2608344862       -0.0978766419
 C         -7.2938697604        0.0063717553       -0.4079269482
 C         -5.9340095012       -0.2328675976       -0.3756958923
 C         -0.6882251925       -1.5471867309       -0.5300099626
 C          0.6902303741       -1.5481768679       -0.5289816473
 H          3.0350742913        1.5519118449       -0.1094813325
 H          5.5488645999       -1.0998046713        0.8448306440
 H          7.9628008314       -0.7190931415        0.7435787044
 H          8.8555861509        1.3937628025       -0.1684656355
 H          7.3007524469        3.1384817444       -0.9667658349
 H          4.8762005117        2.7623582120       -0.8723939283
 H          1.2188708346        1.2956076096        1.2215944412
 H         -1.2162958690        1.2943645980        1.2255110419
 H         -3.0497136047        1.5477682925        0.0333206115
 H         -4.8860570756        2.8569861558        0.5188146116
 H         -7.3048211781        3.2666504621        0.4727017056
 H         -8.8587549067        1.4410116969       -0.1222891791
 H         -7.9675783321       -0.7927039221       -0.6792258549
 H         -5.5605291977       -1.2104371487       -0.6328321085
 H         -1.2221105162       -2.3528433177       -1.0118496690
 H          1.2251287269       -2.3539858282       -1.0094114351
  42
  -65.0274030439000       7.713002585626291E-002 !
 N          3.8759777440       -2.8524756979       -0.6295645987
 C          3.4677805886       -1.8176317121       -0.3420418887
 C          2.8730432155       -0.5772342366       -0.0244367530
 C          3.5677174514        0.5686384610        0.1659731217
 C          4.9960614164        0.7894084741        0.1461635797
 C          5.9422599668       -0.2321761590        0.2696316888
 C          7.2928038819        0.0559079459        0.2370259717
 C          7.7297080498        1.3619472681        0.0810562738
 C          6.8037399198        2.3875798209       -0.0298953988
 C          5.4535783545        2.1063806803        0.0103035361
 C          1.4025800718       -0.6055471381        0.0159677866
 C          0.6895325221       -1.4730924204       -0.8121930967
 C         -0.6893601002       -1.4691661338       -0.8142857572
 C         -1.4014261956       -0.5988102879        0.0122074109
 C         -2.8725669308       -0.5694823968       -0.0407382521
 C         -3.4577948953       -1.8206712712       -0.3314968214
 N         -3.8555249246       -2.8776038280       -0.5352429957
 C         -3.5736764169        0.5679091694        0.1739160931
 C         -5.0013433095        0.7931593230        0.1345013972
 C         -5.4904611072        1.9854075289        0.6834570498
 C         -6.8413459365        2.2660803908        0.6813298591
 C         -7.7350711109        1.3718444961        0.1129815506
 C         -7.2649588700        0.1966424023       -0.4515179171
 C         -5.9148826034       -0.0946287275       -0.4414670896
 C         -0.6878833050        0.2325768952        0.8753575202
 C          0.6905838491        0.2299263358        0.8766788192
 H          2.9796566948        1.4678714628        0.3091104231
 H          5.6177724659       -1.2508891092        0.4063813656
 H          8.0097335408       -0.7454334227        0.3352140684
 H          8.7865988112        1.5803358953        0.0514913304
 H          7.1373825482        3.4082788611       -0.1446291429
 H          4.7348033757        2.9092089793       -0.0776360074
 H          1.2238102884       -2.1437031971       -1.4689284124
 H         -1.2245543069       -2.1379740343       -1.4721684854
 H         -2.9920932746        1.4539736189        0.4016816908
 H         -4.7977637088        2.6868767165        1.1274799517
 H         -7.2001937983        3.1853370574        1.1200610673
 H         -8.7917510490        1.5926163667        0.1043126264
 H         -7.9549378259       -0.4975720012       -0.9073997034
 H         -5.5635892351       -1.0040544687       -0.9005937185
 H         -1.2147025096        0.8700657478        1.5703114203
 H          1.2203926220        0.8670386549        1.5698458813
  42
  -65.0273477788000       7.274872655168704E-002 !
 N          3.5232632853       -0.9801738751       -2.8126508855
 C          3.2694057203       -0.6285154386       -1.7486661290
 C          2.8484062613       -0.2079297317       -0.4685708198
 C          3.6869397517        0.2491471209        0.4905572219
 C          5.1299260960        0.3334955543        0.4811929292
 C          5.9411435816       -0.3765290895       -0.4092348916
 C          7.3160586170       -0.2583644966       -0.3508678727
 C          7.9118159412        0.5668703237        0.5908895234
 C          7.1215203558        1.2706710575        1.4863736396
 C          5.7478736739        1.1500785346        1.4377545162
 C          1.3910050810       -0.2537967606       -0.2715616619
 C          0.5235016117       -0.0605459775       -1.3476945830
 C         -0.8430781380       -0.0929666673       -1.1668988303
 C         -1.3882685090       -0.3283266427        0.0951529279
 C         -2.8440976251       -0.3606748258        0.3025820083
 C         -3.2593165795       -1.2215904355        1.3429961595
 N         -3.5136471311       -1.9170496940        2.2221447641
 C         -3.6939333815        0.4153482480       -0.4090896380
 C         -5.1359303036        0.4892944227       -0.3241103796
 C         -5.7691267646        1.6357912699       -0.8199645369
 C         -7.1408533338        1.7709165706       -0.7540905547
 C         -7.9136107597        0.7561068689       -0.2095140524
 C         -7.3030800742       -0.3950467969        0.2630178635
 C         -5.9296559728       -0.5312933077        0.2084311273
 C         -0.5204887901       -0.5516083405        1.1653137128
 C          0.8456190807       -0.5114133832        0.9860678138
 H          3.2226537013        0.6398251405        1.3885189340
 H          5.4930115118       -1.0342565123       -1.1374784667
 H          7.9273990226       -0.8154996914       -1.0457834854
 H          8.9868685380        0.6572009321        0.6297431597
 H          7.5792547531        1.9123236216        2.2240429260
 H          5.1352171549        1.6984061184        2.1402162034
 H          0.9289065321        0.1202064944       -2.3325954313
 H         -1.4924780834        0.0406583785       -2.0194482320
 H         -3.2464643948        1.1109048678       -1.1094272943
 H         -5.1696506477        2.4300705797       -1.2430067584
 H         -7.6111547955        2.6672929151       -1.1300529289
 H         -8.9871685853        0.8592424974       -0.1597533312
 H         -7.9012901812       -1.1947903095        0.6744220205
 H         -5.4700500610       -1.4404724762        0.5606460670
 H         -0.9255483100       -0.7535534956        2.1461406686
 H          1.4948679358       -0.7062838918        1.8267342171
  42
  -65.0273386055000       7.204596100957973E-002 !
 N          3.3917455567        2.8844520929        0.7405313669
 C          3.1923859875        1.7827897312        0.4816801217
 C          2.8370953240        0.4572177841        0.1507506883
 C          3.7315003863       -0.5145865135       -0.1429177125
 C          5.1760244285       -0.4575770103       -0.1180988899
 C          5.8875207821       -1.4352070485       -0.8245858957
 C          7.2671983450       -1.4319626810       -0.8430764678
 C          7.9686700833       -0.4635035796       -0.1418683079
 C          7.2786438163        0.4982897047        0.5791217673
 C          5.8975984818        0.5055697312        0.5931141880
 C          1.3851570802        0.2247310552        0.0937130566
 C          0.5220883204        1.2423813159       -0.3138956110
 C         -0.8380990739        1.0278623960       -0.3835462927
 C         -1.3831409016       -0.2067237533       -0.0318603142
 C         -2.8334796975       -0.4538049971       -0.0895724245
 C         -3.1641556743       -1.7876917724       -0.4143626050
 N         -3.3368947661       -2.8825382061       -0.7165925798
 C         -3.7450246933        0.5217205758        0.1289052415
 C         -5.1891379780        0.4483709145        0.1036074705
 C         -5.9044875004        1.6500217410        0.0227143882
 C         -7.2836295489        1.6528602223       -0.0212128749
 C         -7.9825576434        0.4569099194        0.0348487504
 C         -7.2897855621       -0.7390632894        0.1380762233
 C         -5.9090820418       -0.7481213111        0.1710323470
 C         -0.5190379934       -1.2233239522        0.3783779870
 C          0.8413977143       -1.0103906452        0.4448813549
 H          3.3234916914       -1.4600215671       -0.4809612182
 H          5.3438114240       -2.1919201401       -1.3727952737
 H          7.7992404297       -2.1882875719       -1.4009947094
 H          9.0482115015       -0.4628983529       -0.1512072785
 H          7.8202869478        1.2470891629        1.1374945854
 H          5.3740323434        1.2491511644        1.1722073690
 H          0.9274797544        2.2033426017       -0.5954474755
 H         -1.4782148335        1.8219139500       -0.7379413981
 H         -3.3533696659        1.5085137621        0.3454997760
 H         -5.3641935245        2.5855242565       -0.0214816304
 H         -7.8171066368        2.5888421312       -0.0964609468
 H         -9.0616949369        0.4574105620        0.0040983707
 H         -7.8290022779       -1.6731080374        0.1940198208
 H         -5.3857597880       -1.6857003390        0.2652283273
 H         -0.9234991113       -2.1842364676        0.6613581930
 H          1.4853853052       -1.8037046997        0.7944571961
  42
  -65.0269019955000       4.538972750180557E-002 !
 N          3.8618317243       -2.8958308017       -0.0018817086
 C          3.4585557715       -1.8203473312        0.0233946902
 C          2.8709287445       -0.5364177066        0.0386745670
 C          3.5801712697        0.6146306025       -0.0176252156
 C          5.0142478874        0.7999295937       -0.0246439247
 C          5.9187157978       -0.1625340674        0.4331438641
 C          7.2774885964        0.0837891393        0.4053482989
 C          7.7634348427        1.2882137679       -0.0784544304
 C          6.8782993493        2.2569174993       -0.5254999430
 C          5.5194656395        2.0200460079       -0.4905388668
 C          1.4000247130       -0.5457072169        0.0564061817
 C          0.6844324444        0.4657186767        0.6971373062
 C         -0.6941116825        0.4616199552        0.6980007807
 C         -1.4044808644       -0.5527764912        0.0562558718
 C         -2.8769017126       -0.5584834923        0.0303134533
 C         -3.4341109465       -1.8553055901        0.0448898751
 N         -3.7990940269       -2.9446342088        0.0826297748
 C         -3.5963407256        0.5876279548       -0.0030126623
 C         -5.0271197362        0.7884649249       -0.0310678112
 C         -5.5029450603        2.0993384898        0.1084107209
 C         -6.8557716495        2.3697861793        0.0984859887
 C         -7.7683579338        1.3387978340       -0.0627872047
 C         -7.3141962751        0.0379289791       -0.2141108266
 C         -5.9612704657       -0.2389750906       -0.1978870537
 C         -0.6882856117       -1.5817063270       -0.5570654122
 C          0.6905220866       -1.5789279430       -0.5565202064
 H          3.0081829980        1.5307720975       -0.1088840796
 H          5.5539534797       -1.0968592838        0.8284007722
 H          7.9620077282       -0.6691304015        0.7664340459
 H          8.8266856462        1.4738719793       -0.1008259428
 H          7.2503505553        3.1999499677       -0.8977833120
 H          4.8321599601        2.7776691596       -0.8405235173
 H          1.2118179896        1.2468470830        1.2250858430
 H         -1.2233403562        1.2391300650        1.2291552999
 H         -3.0235504976        1.5078404464       -0.0141242338
 H         -4.7963934913        2.9082559387        0.2337587037
 H         -7.2018502813        3.3863738019        0.2138617810
 H         -8.8273099687        1.5484128914       -0.0744656158
 H         -8.0197288790       -0.7687146199       -0.3473062534
 H         -5.6263832621       -1.2550835585       -0.3245931115
 H         -1.2204482018       -2.3839684347       -1.0464515624
 H          1.2276162492       -2.3787246235       -1.0445865576
  42
  -65.0262165823000       2.197675052934502E-002 !
 N          3.3320909490       -3.0293840375       -0.0699847454
 C          3.1640726012       -1.8924498568       -0.0544340089
 C          2.8357298303       -0.5203057855       -0.0402798668
 C          3.7355162226        0.4906009985       -0.0023568705
 C          5.1794149203        0.4556185767        0.0108438123
 C          5.9390844593       -0.7158782841       -0.0731864847
 C          7.3188254628       -0.6611912680       -0.0506404786
 C          7.9736840578        0.5561450426        0.0534109114
 C          7.2363354170        1.7272100727        0.1334102925
 C          5.8577868698        1.6780536571        0.1122473945
 C          1.3850477487       -0.2664206489       -0.0466411801
 C          0.8479528200        0.8555703147       -0.6772508955
 C         -0.5102556254        1.0915766732       -0.6562708783
 C         -1.3790251554        0.2065359315       -0.0165519383
 C         -2.8272750745        0.4655844337       -0.0000117321
 C         -3.1641230373        1.8367986706       -0.0064549860
 N         -3.3496516769        2.9707424969       -0.0272558783
 C         -3.7381357238       -0.5348849159       -0.0265607812
 C         -5.1810638528       -0.4524676053        0.0131288457
 C         -5.8776697300        0.6682674218        0.4746773066
 C         -7.2586293749        0.6760673547        0.4945170178
 C         -7.9736822287       -0.4271246592        0.0557281937
 C         -7.2971295453       -1.5501109554       -0.3946558608
 C         -5.9174724917       -1.5668045567       -0.4077592638
 C         -0.8427933225       -0.9185218879        0.6093288484
 C          0.5154221720       -1.1539290716        0.5888573452
 H          3.3201080980        1.4905524550        0.0467363029
 H          5.4476055882       -1.6708588560       -0.1578285106
 H          7.8877745308       -1.5767190386       -0.1150544652
 H          9.0525230822        0.5919866143        0.0710071099
 H          7.7392819355        2.6796266492        0.2126662260
 H          5.2883858984        2.5949165361        0.1766694706
 H          1.4940938142        1.5388401869       -1.2081337747
 H         -0.9096103136        1.9632553149       -1.1539794364
 H         -3.3476557992       -1.5409025020       -0.1264625132
 H         -5.3346083805        1.5266837195        0.8357937158
 H         -7.7804742404        1.5484971301        0.8583854346
 H         -9.0530643085       -0.4144583357        0.0711879425
 H         -7.8484878716       -2.4151647042       -0.7321635728
 H         -5.3933966034       -2.4439771733       -0.7608037264
 H         -1.4902566180       -1.6028477420        1.1372810933
 H          0.9142156943       -2.0257808627        1.0866615255
  42
  -65.0260444173000       1.831647605300687E-002 !
 N          3.6966167983       -2.4824164112        1.6910247578
 C          3.3768043121       -1.5636492796        1.0783613576
 C          2.8709700387       -0.4646311560        0.3525976146
 C          3.6282732171        0.4879704049       -0.2405096428
 C          5.0629142959        0.6494217140       -0.2850845058
 C          5.9703157368       -0.1885199170        0.3711612864
 C          7.3297346739        0.0323943534        0.2695131012
 C          7.8171020568        1.0898465540       -0.4824640168
 C          6.9315688120        1.9328988438       -1.1354818738
 C          5.5726965488        1.7159152454       -1.0381851409
 C          1.4012085863       -0.4482436507        0.2582671115
 C          0.6923966419        0.7524466096        0.2335880748
 C         -0.6799647795        0.7576348884        0.1027929519
 C         -1.3906618372       -0.4379982524       -0.0029392618
 C         -2.8511448439       -0.4370277810       -0.1771878755
 C         -3.3395574019       -1.5332726746       -0.9220703535
 N         -3.6578413562       -2.4624663979       -1.5178900929
 C         -3.6482304891        0.5129376201        0.3646032284
 C         -5.0794282898        0.6754717324        0.2349816540
 C         -5.7456452611        1.4650663298        1.1801785770
 C         -7.1092912442        1.6616953406        1.1036110985
 C         -7.8367044714        1.0895099606        0.0715638135
 C         -7.1882479906        0.3221048227       -0.8830347911
 C         -5.8250199049        0.1145293669       -0.8059732503
 C         -0.6826278721       -1.6399919673        0.0362649896
 C          0.6890486898       -1.6452490172        0.1757508046
 H          3.0848408950        1.2439502933       -0.7958417523
 H          5.6096852959       -1.0140712410        0.9617675200
 H          8.0146841880       -0.6268296798        0.7815094668
 H          8.8810042664        1.2563892764       -0.5585886421
 H          7.3034415879        2.7603124078       -1.7214758514
 H          4.8871892804        2.3762599469       -1.5510451798
 H          1.2179729243        1.6912349505        0.3308640956
 H         -1.2030746073        1.7017455456        0.0595883909
 H         -3.1689830726        1.2397030411        1.0100250233
 H         -5.1818781239        1.9131995564        1.9864767686
 H         -7.6077851731        2.2672556857        1.8459882335
 H         -8.9026604135        1.2476968704        0.0069470632
 H         -7.7475432001       -0.1149877136       -1.6965981208
 H         -5.3310043757       -0.4687880960       -1.5661608516
 H         -1.2160497930       -2.5760837047       -0.0376608868
 H          1.2204028530       -2.5851058220        0.2028858243
  42
  -65.0259677398000       1.688897851990278E-002 !
 N          3.4614955271       -0.0574628450       -3.0086909358
 C          3.2355582540       -0.0337349627       -1.8823128307
 C          2.8443619644       -0.0370799780       -0.5261889569
 C          3.6974439491        0.0597374770        0.5205162846
 C          5.1373435565        0.1785715147        0.5401124608
 C          5.7801611772        0.0884158239        1.7822869573
 C          7.1531329315        0.1814029162        1.8810187392
 C          7.9189233050        0.3789444462        0.7425625943
 C          7.2980505061        0.4830781001       -0.4923940625
 C          5.9246163862        0.3836629410       -0.5975121843
 C          1.3893088380       -0.1620651730       -0.3369494086
 C          0.5113674156        0.3726675165       -1.2812524848
 C         -0.8534232491        0.2759624835       -1.1122723101
 C         -1.3886666839       -0.3643240659        0.0052698134
 C         -2.8434534672       -0.4675904315        0.2012179017
 C         -3.2437584107       -1.6263314310        0.9012896980
 N         -3.4793361767       -2.5857279596        1.4880730021
 C         -3.6945437441        0.4976282263       -0.2194828338
 C         -5.1351199221        0.5596812624       -0.1240298593
 C         -5.7554414323        1.7915480314       -0.3701876439
 C         -7.1265020152        1.9241762639       -0.2915647760
 C         -7.9131828040        0.8268735767        0.0225198638
 C         -7.3162590995       -0.4027874689        0.2518518346
 C         -5.9439036987       -0.5398212564        0.1798642150
 C         -0.5108821328       -0.9263270079        0.9336304175
 C          0.8537995036       -0.8250598203        0.7670118509
 H          3.2442565859        0.0485585516        1.5049836959
 H          5.1885358467       -0.0650246432        2.6741890123
 H          7.6293428205        0.1023862973        2.8471868484
 H          8.9932255109        0.4545379354        0.8176543455
 H          7.8885359168        0.6433120949       -1.3821337120
 H          5.4589010730        0.4734057195       -1.5648450418
 H          0.9070090559        0.8718207746       -2.1537866579
 H         -1.5085564207        0.6803563204       -1.8695123828
 H         -3.2405889504        1.3748242025       -0.6656471007
 H         -5.1462906590        2.6505421585       -0.6150861898
 H         -7.5854993561        2.8837046802       -0.4783771471
 H         -8.9863099939        0.9282285714        0.0826093463
 H         -7.9246619325       -1.2632116723        0.4871749660
 H         -5.4966707741       -1.5058216886        0.3473632832
 H         -0.9067316014       -1.4441085147        1.7950840092
 H          1.5078374348       -1.2899875117        1.4895385600
  42
  -65.0242186125000       2.653139788870705E-003 !
 N          3.6500164330       -2.4571828200        1.6885742949
 C          3.3490535954       -1.5488084677        1.0522037260
 C          2.8646530244       -0.4534921296        0.3056490363
 C          3.6418993931        0.5009646236       -0.2569470947
 C          5.0794093449        0.6486071260       -0.2597411953
 C          5.9683246938       -0.3155637687        0.2259660337
 C          7.3316883414       -0.1000618787        0.1805135453
 C          7.8411363577        1.0769504211       -0.3449239506
 C          6.9742120969        2.0416094512       -0.8340156185
 C          5.6116640736        1.8282905580       -0.7971795640
 C          1.3968125548       -0.4338110648        0.1838739874
 C          0.6860450991        0.7650780513        0.1432239615
 C         -0.6859724193        0.7669566948        0.0052069706
 C         -1.3946247993       -0.4300486354       -0.0921478139
 C         -2.8592218362       -0.4459741855       -0.2465719514
 C         -3.3238557030       -1.5168618191       -1.0403811350
 N         -3.6081182390       -2.4010707983       -1.7171325302
 C         -3.6542807994        0.4945430807        0.3142536619
 C         -5.0909381863        0.6447990576        0.2613465576
 C         -5.6397971726        1.8385156585        0.7482759329
 C         -7.0014863094        2.0587272262        0.7193350165
 C         -7.8512834102        1.0860876846        0.2162450963
 C         -7.3259025608       -0.1067656806       -0.2548180326
 C         -5.9629436920       -0.3288590252       -0.2355128207
 C         -0.6836197557       -1.6300046887       -0.0483515064
 C          0.6871290438       -1.6321381315        0.0987281210
 H          3.1188284658        1.2788795322       -0.8012524178
 H          5.5907056350       -1.2397578386        0.6306271225
 H          8.0020378738       -0.8581718362        0.5570838339
 H          8.9078460636        1.2400287877       -0.3761700584
 H          7.3637056565        2.9603104106       -1.2470272619
 H          4.9409114349        2.5843167610       -1.1812343727
 H          1.2083198166        1.7060073130        0.2369911472
 H         -1.2089957832        1.7105567486       -0.0481326254
 H         -3.1517562887        1.2602744967        0.8938488072
 H         -4.9823615335        2.6007653115        1.1429072676
 H         -7.4038000311        2.9889189440        1.0924151569
 H         -8.9173714149        1.2548256554        0.1957060089
 H         -7.9832546162       -0.8717938339       -0.6401898431
 H         -5.5729518008       -1.2656566019       -0.5974240265
 H         -1.2142894285       -2.5677861036       -0.1210774705
 H          1.2194672635       -2.5711885066        0.1327229641
