93
 energy: -134.879225962833 gnorm: 0.000047208143 xtb: 6.7.1 (edcfbbe)
C           -9.06617234680057        3.38412376072652       -1.34107111371836
C           -7.95717622102245        2.42748550293387       -1.01793809462861
C           -7.70398192070886        1.33676395123933       -1.84208060254012
C           -6.68955500702521        0.43739624107196       -1.56510200980939
C           -6.45534064012867       -0.70504751915124       -2.51043816172007
C           -5.87229646126122        0.60107860653412       -0.42853222180316
B           -4.70288993379015       -0.40678265976930       -0.11524883302459
C           -3.27019193545712        0.13809355869736        0.07250188697992
C           -2.87645919174386        1.39726530908486       -0.43156042206570
C           -1.60437436801805        1.88725972598432       -0.27034849326680
C           -0.64214055443831        1.13770898696976        0.41744240587274
N            0.65794418252433        1.62918825410484        0.58231059682436
C            0.99412487568555        2.89581702522361        1.03272625981529
C            0.17371523602816        3.92716324122830        1.45684867747639
C            0.77472754993366        5.10152951190955        1.88414148588282
C            2.16138239466055        5.24429054996848        1.89206000086844
C            2.98807475504448        4.21226548038639        1.49485720249321
C            2.40755827161622        3.01870625867804        1.07095797218938
C            2.93525372440130        1.76928385677527        0.62596836118333
C            4.22477648353422        1.28763964036655        0.43832221713496
C            4.38565842013782       -0.00563247547741       -0.03891527942398
N            5.68674076096133       -0.52196877852976       -0.23099238177109
C            6.10139649876153       -1.64149657323340        0.46727640583967
C            5.30747692399836       -2.26908349944074        1.43271939107429
C            5.76022878056220       -3.38328048113952        2.10318139644682
C            7.03308011884285       -3.90321312285367        1.84190668492254
C            7.85356824521665       -3.27700303530104        0.92708945747058
C            7.41096713668470       -2.15026098235432        0.24524780501464
O            8.27847231477686       -1.54957100212338       -0.61001564174745
C            7.86484769834424       -0.44270885250287       -1.27998794045050
C            8.76302802096548        0.15344473576822       -2.15635953240488
C            8.38571644295581        1.25375628552227       -2.89732801964500
C            7.08258464609330        1.75213272093046       -2.78568697739517
C            6.18331346000581        1.17416689790497       -1.91801775293321
C            6.55388588503354        0.08642073309928       -1.12048574618223
C            3.27729659983467       -0.81091514173026       -0.35197432680825
C            1.98848076887831       -0.34196467965946       -0.17957162813857
C            1.81419667291656        0.93653782044243        0.33145422832308
C           -1.00138118210705       -0.11440923206786        0.93175996944994
C           -2.27586764645975       -0.59364467872838        0.75784853480390
C           -4.95369364545124       -1.95767799169009        0.00890257239749
C           -4.23393277643159       -2.88319018140148       -0.76538883155790
C           -3.21248248097606       -2.44664917277092       -1.77933893550291
C           -4.46255435914061       -4.24618092613113       -0.63504893541232
C           -5.39523369523146       -4.74544885736433        0.25991897797164
C           -5.64770768942690       -6.21851301327044        0.38580230858367
C           -6.11044900218743       -3.83395440768242        1.02709638472791
C           -5.90454779163795       -2.46972888296700        0.91366407423934
C           -6.69334727952612       -1.54259710683379        1.79219906406965
C           -6.13439009240091        1.70305899968453        0.40284341140899
C           -5.34270624578545        1.95669718722014        1.65610901986901
C           -7.16059714487710        2.58932029155842        0.10368312698089
H           -9.08883677980153        4.20832026576646       -0.63171185731162
H          -10.02866648230156        2.87243458405110       -1.30921062203152
H           -8.93977505019264        3.78988958751374       -2.34474842479193
H           -8.31678487441740        1.19250281044905       -2.72297441495059
H           -6.52880019544026       -1.65570423711941       -1.98582428444193
H           -5.45700172217232       -0.64342433529690       -2.94078026200242
H           -7.18304951242014       -0.69328947425834       -3.31941261867581
H           -3.60071661680031        1.98281207471397       -0.98113506868516
H           -1.32445708683852        2.83997136916021       -0.69835117722047
H           -0.90035098950500        3.82159756398855        1.46521546582219
H            0.15502953190857        5.91989765459371        2.21957319692173
H            2.59228973728739        6.17724865867391        2.22564416364306
H            4.06199145035536        4.32160920472468        1.51634583861708
H            5.08369994911947        1.89471978062852        0.67974887938938
H            4.33165937257166       -1.86745421535394        1.65357024201428
H            5.12938485559555       -3.85329309992293        2.84091910738845
H            7.37874966316640       -4.77959313078360        2.36588521449654
H            8.85002865498600       -3.63591404494821        0.72287040024660
H            9.75045771631536       -0.27259020437599       -2.23990098115028
H            9.08675705955742        1.71580966665487       -3.57342135315027
H            6.77525088254195        2.59180625666517       -3.38864475124562
H            5.17709906620456        1.55623915212252       -1.85338703974335
H            3.44411789176861       -1.79526399907153       -0.76111684633304
H            1.14279560241745       -0.95127915759410       -0.45730312010046
H           -0.27310920557801       -0.68299878025341        1.49354065314220
H           -2.53924142151643       -1.55532195618275        1.17628873206602
H           -3.33296964468974       -3.01151916303014       -2.70336279767888
H           -2.20618449665411       -2.63352540294953       -1.40283800517110
H           -3.29942281353332       -1.38635346241963       -1.99590172650378
H           -3.89720425689207       -4.93444524646880       -1.25079957467696
H           -6.54836562522512       -6.49247376581739       -0.16640279288115
H           -4.81534498878527       -6.79212586693522       -0.01629609452128
H           -5.79842846366366       -6.49695134733232        1.42762538294047
H           -6.84432805213192       -4.20306832059923        1.73239699447778
H           -7.40078894365166       -2.09794732712761        2.40482278181977
H           -6.02830895536522       -0.98493061057908        2.45005476584708
H           -7.24135700146958       -0.82029861601927        1.19034041973119
H           -4.77402163911964        1.07917014455829        1.94834152928397
H           -6.00728496517188        2.24015361288736        2.47183224936574
H           -4.64083123046731        2.77635361595049        1.49776879151090
H           -7.34187627767186        3.42522361604795        0.76770777594436
