  60
        -97.67065760
 C          7.2786503573       -0.3631223502       -2.2774308300
 C          6.6273811840        0.8671292721       -2.2991751309
 C          5.4717703942        1.0848292359       -1.5704092695
 C          4.9829889861        0.0375780571       -0.8015009567
 C          5.6226564184       -1.2252462803       -0.7988892711
 C          6.7796758528       -1.4205652422       -1.5379635900
 C          4.8280343806       -2.0829063112        0.0383397320
 C          4.9510351304       -3.4053298581        0.4377797225
 C          3.9981958713       -3.9289353153        1.2933833792
 C          2.9483680734       -3.1448987675        1.7635722161
 C          2.8070318347       -1.8226921378        1.3816378804
 C          3.7412332826       -1.3009677982        0.4970161740
 N          3.8490425787       -0.0234122629       -0.0168509248
 C          2.9601841116        1.0244873259        0.2301147231
 C          3.4591543222        2.2898439406        0.5768416541
 C          2.5739715078        3.3339274245        0.8431286349
 C          1.2222790268        3.0993711017        0.7559793920
 S         -0.0496976915        4.2680333358        1.0596923819
 C         -1.2858513284        3.0748145853        0.7422257978
 C         -2.6468537309        3.2709194899        0.8280693890
 C         -3.5022082941        2.2143176973        0.5424276543
 C         -2.9714632128        0.9598656763        0.1740898161
 N         -3.8247171903       -0.0989448251       -0.1013805701
 C         -5.0723780683       -0.0312701589       -0.7060023182
 C         -5.6907561299        1.0286309147       -1.3457903009
 C         -6.9442426490        0.8131293154       -1.9064310361
 C         -7.5569246495       -0.4346591015       -1.8468753702
 C         -6.9273623050       -1.5127712744       -1.2509793452
 C         -5.6713017467       -1.3197986215       -0.6841028638
 C         -4.7348333994       -2.1970933021       -0.0577914897
 C         -4.7031607977       -3.5540635237        0.2712512752
 C         -3.5570316727       -4.0254369752        0.8937690158
 C         -2.5049601715       -3.1593223499        1.1679410400
 N         -2.5116204335       -1.8596738341        0.8635473088
 C         -3.5991771788       -1.4125747710        0.2680390237
 C         -1.5976836023        0.7562439899        0.1098071735
 C         -0.7242205424        1.8113800941        0.3899953585
 C          0.6913453716        1.8281782820        0.3990117269
 C          1.5947820130        0.7897855044        0.1330873999
 H          8.1800681797       -0.4938209196       -2.8569364363
 H          7.0293662898        1.6679865781       -2.9012675134
 H          4.9611602116        2.0342926488       -1.6114872213
 H          7.2740993113       -2.3799854163       -1.5385152648
 H          5.7762379022       -4.0081370534        0.0906726699
 H          4.0735114051       -4.9576912141        1.6124601862
 H          2.2308617667       -3.5746940328        2.4460490711
 H          2.0024699793       -1.2183546257        1.7700867641
 H          4.5204993128        2.4375944673        0.6858087747
 H          2.9476131774        4.3036242923        1.1321432088
 H         -3.0450164780        4.2266071813        1.1318761791
 H         -4.5643986884        2.3322873416        0.6697344779
 H         -5.2128421572        1.9912681884       -1.4338603687
 H         -7.4452577541        1.6292595911       -2.4038063726
 H         -8.5334818009       -0.5646664297       -2.2891127835
 H         -7.3913993059       -2.4868775052       -1.2313913757
 H         -5.5363014022       -4.2035345098        0.0514325316
 H         -3.4735749010       -5.0649895546        1.1708605979
 H         -1.6043426155       -3.5084722602        1.6519616480
 H         -1.2120537061       -0.2101670178       -0.1639812121
 H          1.2271036618       -0.1731750956       -0.1816893446
