60
 energy: -97.711301504187 gnorm: 0.000026605767 xtb: 6.7.1 (edcfbbe)
C            7.24344009621754       -0.33707056768839       -2.34070770455763
C            6.58903233376059        0.89181808755712       -2.34339941335036
C            5.44691100907224        1.10291421158629       -1.59159059174469
C            4.97492360783824        0.05016729736088       -0.81821006734363
C            5.61837227551852       -1.21045065882531       -0.83392349660360
C            6.76058848891158       -1.40000518509532       -1.59636311511961
C            4.84091195947710       -2.07587858210565        0.01452176116189
C            4.97688572183646       -3.39918099701293        0.40493913080462
C            4.04094089582671       -3.93173922586317        1.27527332747436
C            2.99609419245011       -3.15439862676847        1.76752188679962
C            2.84244673213529       -1.83085315436326        1.39421084898489
C            3.75912829931475       -1.30001694091906        0.49548768234635
N            3.85359427917312       -0.01855231973120       -0.01373462451167
C            2.96111646528011        1.02472863870140        0.24102474562782
C            3.45760448852493        2.29380962895924        0.58146258848288
C            2.57137402924703        3.33740852173753        0.84329442485288
C            1.21889061973715        3.10084208372280        0.75843443285806
S           -0.05415484249850        4.27189221735477        1.04426462889710
C           -1.29015565061571        3.07470317448486        0.73383566916100
C           -2.65128083277128        3.27497324211386        0.80472554113469
C           -3.50657698946695        2.21494511253105        0.52624435621090
C           -2.97507236980595        0.95531301638964        0.18292891203618
N           -3.82922011809782       -0.10874927257462       -0.08408192356157
C           -5.05530602101274       -0.05306117691437       -0.73466247419003
C           -5.64575568132915        0.99259092024152       -1.42242144446856
C           -6.87731136527373        0.76562098729704       -2.02665399892071
C           -7.49476396030204       -0.47994852615922       -1.96062114944343
C           -6.89314973362932       -1.54356121859546       -1.31175283361403
C           -5.65891341035681       -1.33940439096261       -0.69984928978641
C           -4.75085831002526       -2.20072323237325       -0.01280463689847
C           -4.73768396554030       -3.54889499890667        0.35728920190772
C           -3.61615163501784       -4.00440853383993        1.03570310011399
C           -2.57218437940102       -3.13431328481318        1.32380514945459
N           -2.55968334377418       -1.84022769742907        0.98257533254123
C           -3.62459331607121       -1.41154516159521        0.33253617039809
C           -1.60137768112526        0.74918561499048        0.12956644740996
C           -0.72688733166432        1.80740264114593        0.40051251130848
C            0.68958992440077        1.82466656298633        0.41364478701328
C            1.59488842586195        0.78628139805713        0.15324024061907
H            8.13363008664795       -0.46329517310466       -2.93868460131692
H            6.97727555736963        1.69692030340002       -2.94921840432874
H            4.93369646722503        2.05138109029938       -1.61899684410624
H            7.25693091148139       -2.35826353761960       -1.61243819458391
H            5.79781263805923       -3.99765625638002        0.04060011084731
H            4.12699825509645       -4.96155226708414        1.58855172831266
H            2.29180751898433       -3.59075430324868        2.46007654810752
H            2.04076496540333       -1.23326312890233        1.79954553627077
H            4.51881638037522        2.44522728201078        0.68734538357921
H            2.94366574668161        4.30955481813939        1.12640932324732
H           -3.05151027482438        4.23535813299533        1.09106870383670
H           -4.57071412951562        2.33877411710929        0.63465970097442
H           -5.16274755148939        1.95289128696197       -1.51177886601983
H           -7.35683050157725        1.57048175382027       -2.56258212858101
H           -8.45349763203007       -0.62009989461385       -2.43818637429625
H           -7.36167665744836       -2.51561668077759       -1.28484748854908
H           -5.56390153206614       -4.20353524862572        0.12556081050920
H           -3.54606313091960       -5.03637459016494        1.34502693445843
H           -1.69117492703688       -3.47162376121879        1.85164288421449
H           -1.21722173394405       -0.22277074281328       -0.12846799915315
H            1.22725887887086       -0.17928203625283       -0.15501788710185
