60
 energy: -97.711303358365 gnorm: 0.000059428170 xtb: 6.7.1 (edcfbbe)
C            7.25394455765913       -0.35337833690639       -2.30883555253189
C            6.60612178511370        0.87899510383172       -2.31168519311393
C            5.45950150969283        1.09333911106086       -1.56765974953955
C            4.97631300099448        0.04025209629468       -0.80170819906927
C            5.61305682720681       -1.22377864744989       -0.81759999732132
C            6.75984405222868       -1.41659675938274       -1.57230798053536
C            4.82459992361681       -2.08837350461457        0.02151553468090
C            4.95039490555802       -3.41407944472095        0.40727589858749
C            4.00501759539131       -3.94521700746601        1.26822437729357
C            2.96077502406777       -3.16420876538221        1.75589873899842
C            2.81730970384769       -1.83820377629328        1.38726710847361
C            3.74352539788070       -1.30856300936220        0.49762488420607
N            3.84883617465297       -0.02546320651829       -0.00571613464556
C            2.96066702690450        1.02139868006561        0.24897437955147
C            3.46089228731016        2.28664512382338        0.59827813352983
C            2.57791897191867        3.33161209906785        0.86583225376297
C            1.22464911094411        3.10038052028249        0.77790979113576
S           -0.04572548497366        4.27153707678184        1.07589436224628
C           -1.28488128391795        3.07949983611039        0.75762794691643
C           -2.64567934962144        3.27961012072834        0.83638660721356
C           -3.50295937256924        2.22300509291811        0.55075298562442
C           -2.97405861387981        0.96707685883789        0.18989670476692
N           -3.82846059296895       -0.09466165056544       -0.08474848412602
C           -5.06039980404503       -0.03438445625396       -0.72401297681842
C           -5.66199642352049        1.01900953225977       -1.38993186023269
C           -6.89825690176772        0.79594529918002       -1.98603457778646
C           -7.50937687172319       -0.45340159432973       -1.93415227578540
C           -6.89671914131917       -1.52432267312343       -1.30810566248472
C           -5.65773988578175       -1.32409877670461       -0.70454288458795
C           -4.74001791519386       -2.19200636982919       -0.03909828467783
C           -4.71703812187602       -3.54619128501573        0.30824240382280
C           -3.58818244805243       -4.00709937386892        0.97062524026861
C           -2.54643344401901       -3.13649683193819        1.26508974113313
N           -2.54297425973395       -1.83703839036309        0.94473321852833
C           -3.61486395026222       -1.40306650008488        0.30981398097926
C           -1.60061514099514        0.76139144980962        0.12763003089411
C           -0.72447155399256        1.81515060346550        0.40907226523979
C            0.69196999222298        1.82895996767135        0.42138506577862
C            1.59378495941923        0.78932303543486        0.15481215407013
H            8.14788946492423       -0.48209305934366       -2.90064866329386
H            7.00311608071858        1.68426389356324       -2.91159015592030
H            4.95148891381088        2.04458002866640       -1.59542520793592
H            7.25117951851551       -2.37743963697207       -1.58833231787504
H            5.77091316292253       -4.01540327083159        0.04672952143792
H            4.08302405885352       -4.97681455967776        1.57773527515190
H            2.24883522544255       -3.59951430528030        2.44127185813121
H            2.01593405501760       -1.23807296743940        1.78945507656879
H            4.52237856989292        2.43352610012768        0.70782573130029
H            2.95334479461286        4.30023694205519        1.15682151312871
H           -3.04414086352714        4.23694727439399        1.13519010458527
H           -4.56632214683718        2.34603474203146        0.66721966656407
H           -5.18441094776474        1.98289698790981       -1.46888467647629
H           -7.38659922861761        1.60700435658638       -2.50437808171999
H           -8.47198937091740       -0.59045076310649       -2.40478426715648
H           -7.36043338660509       -2.49892216254239       -1.29241955889243
H           -5.54164396785483       -4.20117525705255        0.07182440494379
H           -3.51067745403480       -5.04349500968054        1.26291217979711
H           -1.65977029599829       -3.47775655411727        1.78079233665346
H           -1.21788900070661       -0.20714512705048       -0.14471272103005
H            1.22304461688452       -0.17259725318409       -0.16099057139307
