70
 energy: -107.408934445128 gnorm: 0.000130086468 xtb: 6.7.1 (edcfbbe)
C           -1.90151410506648        0.23265462166912        2.45995466102447
C           -1.01726719560760        0.10636076874857        1.25847337884989
C            0.35969544638896        0.10423477949935        1.36101503519894
C            1.17099851919782       -0.01233687114419        0.22703094950526
N            2.59190483924864       -0.00310471652751        0.34666765581076
C            3.23201769967966       -1.23124930765393        0.30954096474116
C            2.53024100563186       -2.39759692774835        0.64641430313661
C            3.16406922963033       -3.62219660359248        0.66353502276098
C            4.51577721887948       -3.73414585233498        0.35396813556796
C            5.21580911887374       -2.59744418086645       -0.00052697897585
C            4.57951626421339       -1.37163151989069       -0.02875242932723
S            5.41759616881406        0.05748272798133       -0.66094500833548
O            5.05054719020327        0.19328166206702       -2.05155861573128
O            6.82019495638075        0.02023901332227       -0.34798883401979
C            4.59575318177074        1.37049556666995        0.20826241986604
C            5.25702431356995        2.56249916262938        0.42722845700222
C            4.56991649960669        3.65729768412745        0.91629027863468
C            3.20441064951920        3.54225863744135        1.14234599938241
C            2.54409123629737        2.34899089165512        0.93442475931289
C            3.23665421795277        1.21471124365690        0.48631773702061
C            0.60876026302409       -0.15206972576446       -1.04821235354130
C            1.47907613871355       -0.32987425314568       -2.25126459658581
C           -0.76931554268299       -0.14973202701293       -1.15284611734667
C           -1.57705113153745       -0.01679230171708       -0.01918476068800
N           -2.99523609893850       -0.01214472295628       -0.16607906198861
C           -3.65487777186040       -1.20093606116188       -0.09272808904175
C           -2.92727139982494       -2.41885416385204        0.00954782603142
C           -3.57205050052754       -3.61249957014966        0.11623337678258
C           -4.98373074481526       -3.65338674195647        0.13948172647228
C           -5.70463302283851       -2.46715482365312        0.04464704115783
C           -5.09263047098508       -1.23938760910216       -0.07545841994409
C           -5.90792936328701        0.02530881855432       -0.16900444520551
C           -6.78223653370737        0.14171899733486        1.09660105212901
C           -6.80897891218590       -0.06677622075490       -1.41840660608951
C           -5.06037592971169        1.26667335735771       -0.28478442009550
C           -5.63958927192009        2.51291110727475       -0.36924211367127
C           -4.88741427703023        3.67882835723967       -0.47692527617538
C           -3.47738056632254        3.59668560280876       -0.50315367857369
C           -2.86411903080158        2.38560213003463       -0.41061310963771
C           -3.62391242880194        1.18773077881916       -0.29798900326695
H           -2.52838703366581        1.12159112219467        2.38011551263613
H           -1.30778898462146        0.30562528987592        3.36677609498754
H           -2.56015685837373       -0.63270169944567        2.54186025838064
H            0.82830507448605        0.18625446493386        2.33067805286335
H            1.48371922226212       -2.33182306618128        0.90173183065217
H            2.59975043988239       -4.50377495347536        0.92910132466735
H            5.00403675956202       -4.69527268563843        0.37731374937578
H            6.25978100180195       -2.62809592661761       -0.27039875453767
H            6.30908854767057        2.60330207128269        0.19225155153305
H            5.07855124130241        4.59127461898956        1.09430501467708
H            2.64449419229475        4.39724787274572        1.49151789566480
H            1.48297180853836        2.29094194869957        1.11766035836342
H            2.35294619744180        0.31868854413963       -2.21655257162872
H            1.84562760029009       -1.35662309038664       -2.29471491904543
H            0.92168265235510       -0.12707646242265       -3.16188291331432
H           -1.24186907835449       -0.25009764735950       -2.11851255802097
H           -1.84917756421404       -2.38114793793284       -0.00847238838652
H           -3.01046574743273       -4.53117997229114        0.18446118448831
H           -5.49721682323740       -4.59638283920645        0.22974945539153
H           -6.78266607020682       -2.52686103895202        0.06445748747698
H           -6.14926921614930        0.20786139472969        1.97935637211979
H           -7.40635936764241        1.02937810793503        1.05312794966786
H           -7.42765847125640       -0.72554228195982        1.19991049674993
H           -7.45540145129143       -0.93770506886340       -1.36245991107469
H           -7.43155651543909        0.81850537452816       -1.50878358680810
H           -6.19417202453754       -0.14953618186513       -2.31221781550144
H           -6.71555484455269        2.60392213764091       -0.35641101714009
H           -5.37581822167680        4.63704956342194       -0.54320751188790
H           -2.89203424625931        4.49812506390356       -0.59694163339873
H           -1.78759898770271        2.31602411152412       -0.43201981665252
