70
 energy: -107.408681497113 gnorm: 0.000095317319 xtb: 6.7.1 (edcfbbe)
C           -1.66615749406066        1.48475666199645        2.10958664244423
C           -0.89276958310847        0.76750669098747        1.04545124450547
C            0.47090233574125        0.78144591475971        1.02828245151214
C            1.23032705235972        0.09706219022013        0.02943366158842
N            2.55877809714599        0.33392569014784       -0.08740608591916
C            3.35571594502343        1.01158652498887        0.86107249056162
C            3.14355591662060        2.33153079850277        1.24934776949555
C            4.03744072744644        2.95517289721766        2.09721863170630
C            5.18996134297589        2.28811992852020        2.53664619256163
C            5.43935936702029        1.00005989959874        2.11303908361256
C            4.52518766799913        0.35166460038721        1.30149571655586
S            4.79906570607393       -1.22160834456318        0.54338333520072
O            3.72830248564741       -2.12862631071450        0.89970918365538
O            6.15106228631788       -1.67078828590153        0.74138439722915
C            4.51544039181304       -0.67150702631273       -1.11065385112810
C            5.36000611773947       -0.83406738913117       -2.19366040555721
C            5.00285802037067       -0.32125187686777       -3.42283420344834
C            3.79216030530743        0.37726299386678       -3.56711420198870
C            2.95708760395204        0.56551759927375       -2.48631824322311
C            3.30639403346608        0.04812895076710       -1.24012206932805
C            0.54541130885993       -0.86694978123285       -0.79114936868769
C            1.27997568780142       -1.92122001683797       -1.55599006768038
C           -0.82127213956565       -0.89412391669080       -0.74515172020127
C           -1.57168126809567       -0.02787661534149        0.08125489984209
N           -2.97565390437394       -0.05399524343690        0.02694020223607
C           -3.65713835991524       -1.21369540471502        0.36671552062319
C           -2.94420410132697       -2.31798586039638        0.85364336382312
C           -3.58890655424088       -3.49102239068169        1.17663968919841
C           -4.96468363324449       -3.58127000375035        1.04333054972258
C           -5.67845657189997       -2.47367042699071        0.62537678330445
C           -5.05482349683112       -1.27834624126542        0.29202198018089
C           -5.90074748675754       -0.08046200073500       -0.08600240593811
C           -6.82282998023902        0.25663890036708        1.10079503150120
C           -6.73829045597484       -0.43015373488856       -1.33035869403440
C           -5.05125944821337        1.13012517308116       -0.40820339804836
C           -5.66494220400189        2.31536011851146       -0.79145467134295
C           -4.93774886361978        3.43172424105881       -1.16009101049004
C           -3.55426561702264        3.36128480079553       -1.19053966704302
C           -2.92016197089741        2.19887260179898       -0.81404944151311
C           -3.65171310113237        1.08578895560737       -0.37685994402336
H           -2.41962175591923        0.82712726367730        2.54196261188368
H           -2.18003663972831        2.35491414456642        1.70056066341350
H           -0.99892441926225        1.81847293287789        2.89959561641275
H            1.00425095238541        1.30871658298462        1.80282222087976
H            2.29551767375058        2.87594986025096        0.85939056768439
H            3.85774513166898        3.97313759766517        2.40663512315404
H            5.88524447245690        2.79360796708239        3.18804857544260
H            6.33009548215071        0.46423822820446        2.40204209637980
H            6.27972219522005       -1.37873804358327       -2.04734550052730
H            5.64680635683453       -0.45410462377516       -4.27766618893127
H            3.52059029553731        0.78112909821203       -4.53010700666306
H            2.03827646960055        1.12668916735789       -2.58624857321089
H            2.12665932881912       -2.27554174912748       -0.96762704870609
H            0.61211030057310       -2.75870653057176       -1.74726974891526
H            1.65620761967590       -1.56216747027153       -2.51236127229337
H           -1.36059789046291       -1.59706692149962       -1.36394640816643
H           -1.87747160889543       -2.24459175440769        0.99143745332153
H           -3.01770883970721       -4.33036353581301        1.54222484418592
H           -5.48044148746861       -4.49722073497249        1.28663172822257
H           -6.75341084658877       -2.54630011348482        0.56412421252676
H           -6.22542608316171        0.49641131786008        1.97845132802562
H           -7.45240083894079        1.11131069890973        0.87028736370826
H           -7.46616021657174       -0.58409440607036        1.34356861139333
H           -7.36823986649635       -1.29470215842032       -1.14213702776798
H           -7.37774367487405        0.40070076377121       -1.61412608723330
H           -6.08092565007390       -0.65917847676619       -2.16696502269456
H           -6.74235440759548        2.37352202815052       -0.80915137690988
H           -5.44650107909186        4.33950206055323       -1.44512444602910
H           -2.97069692238428        4.20879376949215       -1.51664148651799
H           -1.84460663365179        2.13393767180414       -0.86818984647562
