53
 energy: -83.865924285618 gnorm: 0.000082797794 xtb: 6.7.1 (edcfbbe)
C           -5.13416999527290        0.84539412346742       -1.86553389256319
C           -3.78494635701652        0.44990333300876       -1.26340003945775
C           -2.79047292258380        0.23097556490414       -2.42404143335407
C           -3.86882024024254       -0.82001671499109       -0.43755809580617
C           -4.92977341380601       -1.71046048268423       -0.47317343127701
C           -4.93919405246874       -2.84203741391991        0.32736300676968
C           -3.89341865992795       -3.08821422399387        1.20167769585822
C           -2.82018739921039       -2.21977953625211        1.25051677812168
C           -2.78837662965211       -1.10971149778322        0.40929994598758
N           -1.72844513150594       -0.18959727131500        0.45213761914360
C           -0.39915085303186       -0.54385297318738        0.34262997583508
C           -0.01440946326290       -1.90497773977970        0.21298218714379
C            1.30413676253050       -2.24512498142180        0.10902067536110
C            2.32162721397854       -1.27443057512323        0.08531546010511
C            1.94735159318714        0.08556471699117        0.13693834266569
C            0.59648233245265        0.42434930400973        0.25012602315258
C            2.92357071750444        1.15819646242928        0.05628593244757
O            2.58641710390665        2.36111152405119        0.09646410058705
C            4.30643852624121        0.73557356548261       -0.06724716394528
C            5.30571916604964        1.71805777629814       -0.15720217429525
C            6.62929086658296        1.37168637203819       -0.26642544234967
C            6.99999126929825        0.02403191613836       -0.29209932798911
C            6.03978207204352       -0.95338588137741       -0.20935272060315
C            4.67997597591690       -0.62270266618826       -0.09831164372355
C            3.70441090146695       -1.69683743422049       -0.02844505996338
O            4.02667907686313       -2.90321021717726       -0.05901515962356
C           -2.16674266110059        1.14351908298309        0.50213704413902
C           -1.63284529654884        2.04529546535564        1.42003781904300
C           -2.11530843613487        3.33811991753522        1.47167582553020
C           -3.13587123644912        3.72688106929057        0.61925312521479
C           -3.69402749783237        2.81735266856954       -0.26540989229782
C           -3.23170557619211        1.51306551937834       -0.33260447934899
H           -5.87537533765659        1.01078574195798       -1.08745922403086
H           -5.48636394659911        0.06597641488429       -2.53543278616577
H           -5.02707407588134        1.75141927592696       -2.45538547376613
H           -3.15196711435615       -0.56349713649954       -3.07284090842612
H           -2.69925295874401        1.14439668652896       -3.00720299569259
H           -1.80163599183490       -0.04300804316574       -2.06576907205351
H           -5.76705427741956       -1.52908759201328       -1.12594094725705
H           -5.77728656635017       -3.52050201489116        0.28283364049357
H           -3.91719875995462       -3.94671542929669        1.85503691673313
H           -2.02502413332114       -2.37318130955315        1.96401610858022
H           -0.76184533086715       -2.67880016467498        0.16099095073732
H            1.60524601719004       -3.27881272776019        0.01786697348115
H            0.36731142622172        1.47849084645246        0.23485996129350
H            4.99081982113448        2.75181783756878       -0.13411066895743
H            7.38510611127040        2.14030706027703       -0.33254127061028
H            8.04164061650585       -0.24791893969224       -0.37768391942917
H            6.29710299780409       -2.00306871381533       -0.22943174987632
H           -0.86745839901910        1.71978847990920        2.10796913151766
H           -1.70088361882259        4.03491344467862        2.18376390308748
H           -3.51256126580417        4.73764501182223        0.65476628561286
H           -4.49941927016681        3.14099373555660       -0.90316762573725
