53
 energy: -83.923144610733 gnorm: 0.000059711453 xtb: 6.7.1 (edcfbbe)
C           -5.06737557565494        0.83965126009202       -1.91533031849126
C           -3.74067579630427        0.43918971794262       -1.26931398388377
C           -2.71349979012487        0.20442085829359       -2.39619930053150
C           -3.86045041233861       -0.82424046130734       -0.43327183537106
C           -4.94397596371194       -1.68900480624015       -0.46944910048674
C           -4.98874071900418       -2.80843143836460        0.34521291817953
C           -3.96182501038233       -3.06414177513124        1.23666148020039
C           -2.87454215994593       -2.21138941902328        1.29438218353314
C           -2.80860245552793       -1.11796007022081        0.44029750022612
N           -1.73058912474149       -0.20445563063161        0.50029628594576
C           -0.42039206104713       -0.56187212802310        0.35302910577402
C           -0.03011769948201       -1.90774250251650        0.21118145444076
C            1.29316995799208       -2.24752382376441        0.07851248304689
C            2.30495492503215       -1.28204491592154        0.05279685334071
C            1.92189155175889        0.06911690777902        0.11543652904539
C            0.58850901089275        0.41071378066238        0.25402894152820
C            2.91453302390423        1.15885900488886        0.02523155061641
O            2.58703333778444        2.33727721748451        0.05744559244073
C            4.32610934048560        0.74641754642824       -0.09928144990732
C            5.31050563996986        1.73018503944203       -0.17570339673259
C            6.64588006022775        1.38765483671817       -0.28354641017785
C            7.01536742711616        0.05090563116286       -0.31802959374995
C            6.04746518409250       -0.93497052627871       -0.24630588674629
C            4.69934887304357       -0.60440600281888       -0.13741360970847
C            3.69782957164080       -1.69349722120742       -0.06976139719962
O            4.03573244537888       -2.87435557421240       -0.11889572308801
C           -2.17450576809594        1.13779363909268        0.53895542872576
C           -1.67295281278827        2.03228499907390        1.47567245011924
C           -2.15967943115532        3.32573435817294        1.51924689493407
C           -3.16003120877711        3.71264705761756        0.64490990998165
C           -3.68864683609690        2.80554042633792       -0.25871322393080
C           -3.20986271092167        1.50578419044717       -0.32546986612139
H           -5.83172533073209        1.01635835492956       -1.16209484595509
H           -5.40575101397983        0.05718696134968       -2.58954510323255
H           -4.93641367236450        1.74123997131655       -2.50802713466622
H           -3.06480206170813       -0.58698839611745       -3.05494885728628
H           -2.59112028313641        1.11525061204950       -2.97848846020934
H           -1.74056915961985       -0.08299914474301       -2.00698029947612
H           -5.76924910615144       -1.49865755594955       -1.13541005911467
H           -5.83886571128731       -3.47212651492133        0.29469897327447
H           -4.00927247572126       -3.91782652778330        1.89582906661837
H           -2.08712179206625       -2.37894776376941        2.01379063394777
H           -0.77667928715646       -2.68452575743021        0.18387718727315
H            1.58287257893344       -3.28397282448964       -0.01676951612412
H            0.34619169673570        1.46229653754226        0.25878595422313
H            4.99921521631456        2.76444396474879       -0.14610838840330
H            7.39762506923773        2.16036963666059       -0.34055960637914
H            8.05658664421676       -0.22240269846857       -0.40093370364116
H            6.31231267022982       -1.98223695721571       -0.27321522357312
H           -0.91541982582197        1.70957666162413        2.17437247994866
H           -1.76365677568955        4.02317544832542        2.24184287996589
H           -3.54285363855527        4.72178484377423        0.67483376265290
H           -4.48232900567047        3.12742967636951       -0.91246034788651
