53
 energy: -83.918783363535 gnorm: 0.000050765167 xtb: 6.7.1 (edcfbbe)
C           -5.16781646864004        0.00006068702632        0.75639423603330
C           -4.03866677245574        0.00005953304898       -0.29102651567318
C           -4.63000203751465        0.00010872197582       -1.71349016343573
C           -3.20794106974145       -1.25751295214587       -0.11268560016509
C           -3.81349712842197       -2.50128782411752       -0.23289434835214
C           -3.10690463369313       -3.68106308411474       -0.08530832741412
C           -1.75209835320221       -3.62877954087135        0.18870028301371
C           -1.12454801998362       -2.40654863005369        0.31370320284953
C           -1.83855137326686       -1.21387694250516        0.16813103650033
N           -1.18008546775742       -0.00002426506032        0.30622850318821
C            0.20722587837083       -0.00006431975376        0.60767555880102
C            0.63446572347269       -0.00020778622920        1.93382119562651
C            1.98558775284443       -0.00024206379166        2.22154969830141
C            2.93439177566602       -0.00014045606629        1.20061713622869
C            2.50648929609737       -0.00000128948748       -0.13425975450845
C            1.14444776620603        0.00003469964257       -0.41749850719862
C            3.46571840622294        0.00014235537548       -1.26172490860293
O            3.08882570424545        0.00023743716206       -2.42302019306555
C            4.89707421509855        0.00005057154781       -0.90211948641690
C            5.84592296194822        0.00012285880629       -1.92249233889297
C            7.19846588832317        0.00009334308688       -1.63044647494894
C            7.62145106587305       -0.00002318313380       -0.30930393982114
C            6.68973256811081       -0.00010854530539        0.71379315746951
C            5.32496285965790       -0.00007470789599        0.43409770728514
C            4.36854312320025       -0.00017840496825        1.55890168124621
O            4.73896712669754       -0.00028667425351        2.72286451789312
C           -1.83848932036711        1.21386719381489        0.16817763795321
C           -1.12443443412192        2.40649790050738        0.31383358106591
C           -1.75193002958454        3.62876514966437        0.18890885666606
C           -3.10673373324183        3.68112717862112       -0.08509773972553
C           -3.81338015220503        2.50139292479714       -0.23275381008941
C           -3.20787967041180        1.25758309014990       -0.11262586223113
H           -4.74390722494222        0.00002711198275        1.75923074135946
H           -5.79573539181927       -0.87991795838787        0.64946658021149
H           -5.79569666004208        0.88007208706302        0.64950915838511
H           -5.24484972605292       -0.88048331158091       -1.87749031884877
H           -5.24481390041278        0.88073461955994       -1.87744308390584
H           -3.82697333755060        0.00011213146817       -2.44889206027148
H           -4.86933432373409       -2.55785588243573       -0.44982170950244
H           -3.61045699161002       -4.63090109249564       -0.18465016055263
H           -1.17972209027479       -4.53733037106344        0.30549349479783
H           -0.06679726512199       -2.37361002460876        0.52704935607992
H           -0.09648726021649       -0.00029537339133        2.72831785070767
H            2.33496215163092       -0.00034920430702        3.24359727298231
H            0.82711777574094        0.00015546922840       -1.45044900804346
H            5.49504175223591        0.00023318993936       -2.94422191024261
H            7.92143039646008        0.00015684377181       -2.43196178776529
H            8.67551202549959       -0.00006380972873       -0.07674620730570
H            6.99705830366052       -0.00020894824633        1.74945934610077
H           -0.06668947100801        2.37349892997463        0.52719780069421
H           -1.17951482683990        4.53728268494854        0.30577013092780
H           -3.61024300277961        4.63099411755408       -0.18438180393133
H           -4.86921338027014        2.55802181527674       -0.44968370145368
