  114
       -177.98970582
 C          2.9604886407       -1.6238540837       -1.6415028788
 C          2.1535366621       -0.9962931989       -0.7079977163
 C          0.9651310654       -1.5752743669       -0.3026224792
 C          0.5679446215       -2.7986593800       -0.8378718411
 C         -0.6574857962       -3.4846471846       -0.4555860923
 N         -0.7215113225       -4.7870561265       -0.3502706921
 C         -1.9942412184       -5.0763418414        0.0262679499
 C         -2.5426218674       -6.3550197790        0.3231614907
 C         -1.7610085721       -7.5128986622        0.2539157920
 C         -2.2969496130       -8.7308954898        0.5897014317
 C         -3.6251583522       -8.8029071416        1.0054160048
 C         -4.4044854164       -7.6715908330        1.0698002247
 C         -3.8968931397       -6.4100726405        0.7228605310
 C         -4.7039803319       -5.2025390104        0.7340248432
 C         -6.0743083766       -5.2426221205        1.0284499500
 C         -6.8637720917       -4.1182281278        0.9877676297
 C         -6.3137246950       -2.8960453572        0.6163339619
 C         -4.9747201000       -2.8122012091        0.3254031433
 C         -4.1408742617       -3.9370268695        0.4087802965
 C         -2.7426584363       -3.9066426948        0.1363518159
 N         -1.8656580285       -2.8830324919       -0.1617398597
 C         -2.1093923607       -1.5019639481       -0.1160471106
 C         -1.8449993396       -0.7059173673       -1.2253908966
 C         -2.0827032832        0.6537350639       -1.1696988476
 C         -2.6085887010        1.2239744174       -0.0159969495
 N         -2.8421071500        2.6123606050        0.0252720147
 C         -1.8497429646        3.5680333546        0.0478128845
 C         -0.4362428940        3.2369915141        0.1414309906
 C          0.0276068514        2.2722550504        1.0329052130
 C          1.3702144258        1.9636726915        1.0874022574
 C          2.2815255687        2.5876612785        0.2370458530
 C          3.6878715702        2.1652697477        0.2272033275
 C          4.3800494642        1.9175779046        1.4108795095
 C          5.6776983984        1.4517734064        1.3900582663
 C          6.3187690970        1.2030169941        0.1760945993
 N          7.6165836031        0.6896575259        0.1399393974
 C          7.9417769811       -0.2693232992       -0.8275904863
 C          7.0159658561       -1.2522368991       -1.1769864526
 C          7.3268861673       -2.1891061464       -2.1428381171
 C          8.5639709618       -2.1688875195       -2.7660600841
 C          9.4906159841       -1.2007177065       -2.4150255218
 C          9.1855902025       -0.2534764263       -1.4567283359
 C          8.5722050289        1.1120742237        1.0680325493
 C          8.5816609722        2.4319968828        1.5196907471
 C          9.5265681041        2.8470038003        2.4374939518
 C         10.4801031166        1.9616986284        2.9129880114
 C         10.4776097257        0.6509481290        2.4647650628
 C          9.5314053902        0.2235959409        1.5537497390
 C          5.6340061195        1.4634122307       -1.0121422467
 C          4.3426050010        1.9423579133       -0.9837521404
 C          1.8172393933        3.5750556909       -0.6298077083
 C          0.4794544657        3.9083571700       -0.6661590770
 N         -2.3305037845        4.7819464536       -0.0135088573
 C         -3.6823563142        4.6450407486       -0.0755490932
 C         -4.6643824527        5.6729440600       -0.1300825797
 C         -4.3011621868        7.0236288453       -0.1078596714
 C         -5.2638735787        8.0009379641       -0.1431435964
 C         -6.6076377284        7.6358678069       -0.1986418602
 C         -6.9758136530        6.3111254611       -0.2243714751
 C         -6.0216380103        5.2822913173       -0.1959159820
 C         -6.3786926565        3.8751335072       -0.2474255148
 C         -7.7112136932        3.4568045079       -0.3715253450
 C         -8.0539674849        2.1283801954       -0.4583673775
 C         -7.0664831232        1.1487947521       -0.4316886832
 C         -5.7501609804        1.5143044532       -0.2979014951
 C         -5.3813778099        2.8629635166       -0.1944709819
 C         -4.0329111022        3.2961770188       -0.0677658607
 C         -2.8635048386        0.4297115775        1.0993097019
 C         -2.6043540099       -0.9245600522        1.0528555635
 C          1.4007877453       -3.4387848047       -1.7573110211
 C          2.5853744921       -2.8535076097       -2.1580573545
 H          3.8808520155       -1.1552412762       -1.9574735554
 H          2.4556071423       -0.0499803268       -0.2911228374
 H          0.3627122566       -1.0805858605        0.4441714540
 H         -0.7340508203       -7.4100513343       -0.0602199391
 H         -1.6972638328       -9.6275028467        0.5403033830
 H         -4.0486669390       -9.7580334531        1.2803138333
 H         -5.4253120229       -7.7764013273        1.4010798436
 H         -6.5389523652       -6.1801588914        1.2864311957
 H         -7.9149635148       -4.1875234869        1.2248892512
 H         -6.9372190059       -2.0167223137        0.5547871410
 H         -4.5642654704       -1.8683376575        0.0068076973
 H         -1.4527681505       -1.1560026944       -2.1241502566
 H         -1.8757868750        1.2796623392       -2.0242561486
 H         -0.6602665742        1.7744084580        1.6993011117
 H          1.7167278407        1.2099318261        1.7797933726
 H          3.8954144649        2.1002041013        2.3587676522
 H          6.2013381225        1.2617041110        2.3152096132
 H          6.0568511544       -1.2774474940       -0.6806985069
 H          6.6006386803       -2.9453738775       -2.4023410622
 H          8.8051572249       -2.9035933920       -3.5188696716
 H         10.4565370376       -1.1769739460       -2.8973618493
 H          9.9055165779        0.5063246683       -1.1901202802
 H          7.8462191944        3.1274874081        1.1424888198
 H          9.5227761768        3.8721856966        2.7773801470
 H         11.2193349336        2.2908239095        3.6270564198
 H         11.2139173710       -0.0480490543        2.8330729347
 H          9.5256903761       -0.8018606625        1.2144451084
 H          6.1255495036        1.2818177239       -1.9566478721
 H          3.8193467884        2.1224613908       -1.9114628012
 H          2.5178986126        4.0918318798       -1.2690471123
 H          0.1200898314        4.6810074908       -1.3281039207
 H         -3.2501311436        7.2618506268       -0.0578067586
 H         -4.9881017710        9.0447998183       -0.1252366160
 H         -7.3695781717        8.4014671324       -0.2218284940
 H         -8.0276719143        6.0773031463       -0.2655135604
 H         -8.5014965046        4.1885226300       -0.4109310728
 H         -9.0912769186        1.8449816170       -0.5579932894
 H         -7.3338575001        0.1066084251       -0.5238161947
 H         -4.9854528208        0.7545334354       -0.2870256830
 H         -3.2681175753        0.8793407517        1.9941809447
 H         -2.7953953242       -1.5476976644        1.9136476259
 H          1.0960562570       -4.3979577530       -2.1455492969
 H          3.2166160004       -3.3554972301       -2.8763238266
