  99
       -158.10225554
 C         -1.1574505046        3.7237759829        0.5222857214
 C         -0.1543625897        4.4139607293       -0.1394089388
 C          0.8332254552        3.7255529549       -0.8198848696
 C          0.8416715603        2.3343516311       -0.8410576517
 N          1.8644303062        1.6577806576       -1.5160505826
 C          3.2133859017        1.7862627486       -1.2370467584
 C          3.8722215533        2.7253135815       -0.4591635900
 C          5.2500258150        2.6496153898       -0.3833474706
 C          5.9617888015        1.6468427160       -1.0358622200
 C          5.3086434112        0.6893022877       -1.7858705969
 C          3.9271123422        0.7610495901       -1.8985671776
 C          2.9560189579       -0.0208435490       -2.6112136008
 C          3.0388692488       -1.1413898018       -3.4271245649
 C          1.8805010576       -1.6336290327       -3.9944392639
 C          0.6550735975       -1.0047490785       -3.7817665491
 C          0.5487003562        0.1111354008       -2.9752233746
 C          1.7018774385        0.5772825508       -2.3596239263
 C         -0.1844979696        1.6384215570       -0.1855355476
 C         -0.2445879906        0.1772593000       -0.1754673212
 N         -1.4458368519       -0.3853990068       -0.1795375043
 C         -1.4718425645       -1.7000176437       -0.3517234774
 C         -2.7636355333       -2.3889849352       -0.3594978909
 C         -2.7679657449       -3.7839402015       -0.3075454137
 C         -3.9457960142       -4.4899328395       -0.1750580808
 C         -5.1503940043       -3.8090599920       -0.0778513361
 C         -5.1689084814       -2.4292712006       -0.1499570800
 C         -3.9894952481       -1.7067014147       -0.3075079788
 N         -4.0756065032       -0.3134093734       -0.4176391677
 C         -3.6503909662        0.4410706179       -1.4885495162
 C         -3.1334443321        0.0248360294       -2.7056759232
 C         -2.8045537955        0.9975312362       -3.6309128458
 C         -2.9851979447        2.3519448987       -3.3564276430
 C         -3.5205675751        2.7691559279       -2.1543191026
 C         -3.8667452529        1.8100437230       -1.2123146420
 C         -4.4392851433        1.8728709950        0.1038015717
 C         -4.8398611492        2.9163905853        0.9275186529
 C         -5.3235631564        2.6184557670        2.1864320201
 C         -5.4058354301        1.3002412142        2.6304094696
 C         -5.0195198098        0.2437211691        1.8274333522
 C         -4.5447897966        0.5376241270        0.5579222539
 N         -0.3787285789       -2.4604787279       -0.4322568236
 C          0.7588007915       -1.8279843598       -0.1922727496
 C          1.9690177345       -2.6179582275        0.0679183718
 C          2.3674382897       -3.6323117386       -0.7889674476
 C          3.5399306133       -4.3249681452       -0.5457506817
 C          4.3062240471       -4.0187691734        0.5672387459
 C          3.8996190143       -3.0316234713        1.4480235004
 C          2.7305092863       -2.3215602174        1.2072467235
 N          2.2996563353       -1.3225163417        2.0945765461
 C          2.9713893421       -0.1335231490        2.3219952616
 C          4.2948874355        0.1906709603        2.0723554506
 C          4.7307810301        1.4478765403        2.4444423348
 C          3.8671974438        2.3773228616        3.0179619915
 C          2.5389994029        2.0711450363        3.2372150451
 C          2.0856824505        0.8034629655        2.8997549685
 C          0.8116024203        0.1492758041        3.0144344553
 C         -0.4403842466        0.5560911968        3.4558282223
 C         -1.4831053648       -0.3488368375        3.4182971751
 C         -1.2787055347       -1.6578321380        2.9884535524
 C         -0.0402286264       -2.0873369194        2.5493875710
 C          0.9942105809       -1.1623270995        2.5233648713
 N          0.8855683608       -0.5107973585       -0.1210898585
 C         -1.1754207974        2.3438360840        0.4877841443
 H         -1.9265249222        4.2575143995        1.0590820233
 H         -0.1420967908        5.4940857494       -0.1315788607
 H          1.6012888644        4.2626892566       -1.3559994451
 H          3.3324720630        3.4886536667        0.0791400865
 H          5.7857459087        3.3874341938        0.1954371847
 H          7.0382195526        1.6195054552       -0.9493486753
 H          5.8570330763       -0.0961812924       -2.2842968913
 H          3.9915370117       -1.6149528061       -3.6109707828
 H          1.9209920839       -2.5103216167       -4.6245735157
 H         -0.2318428384       -1.3975787820       -4.2578086792
 H         -0.4039206329        0.5966832482       -2.8187893359
 H         -1.8172731270       -4.2914653893       -0.3558456794
 H         -3.9279988063       -5.5684295062       -0.1338866087
 H         -6.0752585542       -4.3533674062        0.0423652769
 H         -6.1038048463       -1.8902574646       -0.0977042949
 H         -2.9849043497       -1.0240182739       -2.9188895091
 H         -2.3963139405        0.7037559038       -4.5873741440
 H         -2.7044031932        3.0813939435       -4.1017815065
 H         -3.6689640125        3.8185440306       -1.9484756953
 H         -4.7687361977        3.9388183567        0.5874592364
 H         -5.6388800655        3.4158320187        2.8432191449
 H         -5.7783801514        1.1007883423        3.6247174179
 H         -5.0766720908       -0.7760605405        2.1788632323
 H          1.7619849043       -3.8480728843       -1.6557582692
 H          3.8564719645       -5.1036515824       -1.2229247396
 H          5.2207659696       -4.5603395545        0.7588776322
 H          4.4775481288       -2.8140624712        2.3337322943
 H          4.9659842679       -0.5095426893        1.5994241458
 H          5.7647935514        1.7134257745        2.2855179536
 H          4.2453099018        3.3516827781        3.2906536709
 H          1.8642136387        2.7944669421        3.6703852716
 H         -0.5937922929        1.5644481128        3.8099771987
 H         -2.4707977755       -0.0440945994        3.7315499110
 H         -2.1062725121       -2.3529386798        2.9906331617
 H          0.1100537870       -3.1050005310        2.2183124919
 H         -1.9410227058        1.7852003271        1.0016884763
