91
 energy: -136.985943643660 gnorm: 0.000037948644 xtb: 6.7.1 (edcfbbe)
C            0.36019354661822        5.34454422982660        1.19141612219325
C           -0.23615661404088        4.63977636865634       -0.03285203140902
C            0.27887835091114        5.28915291745578       -1.32318270270174
C           -1.74291312773745        4.65944827144570        0.01877960201031
C           -2.58237474768976        5.75245100622436        0.04817560886396
C           -3.95331884190111        5.54720520454557        0.12056508644625
C           -4.46834193479465        4.26132591336938        0.16992913770283
C           -3.62991550933656        3.15963779607713        0.13689552138951
C           -2.25911361316877        3.35455450956484        0.05271738251627
C           -1.15247086668029        2.41209139740323        0.01552916437124
C            0.05992219198317        3.15344180466897       -0.01277626212661
C            1.34092732620171        2.61651491967654       -0.01519675502040
C            1.45202449579000        1.22846372879524        0.01873121480240
C            2.43175798048939        0.15941193362036        0.04316413240473
C            3.81487973871301        0.15691957255828        0.05194564442613
C            4.49195579890384       -1.06062984320721        0.07221555051200
N            5.89581698131511       -1.08402770688558        0.06773242756816
C            6.60258498416603       -0.18364327708395       -0.73553515890659
C            6.10593515987220        0.19114153181365       -1.98484862250621
C            6.80468950561426        1.08371094364671       -2.77444076773150
C            8.00998617890859        1.61221592493814       -2.34076768483665
C            8.50841456692375        1.24407234734863       -1.10129020833464
C            7.81234136211794        0.35933984676987       -0.30039961502596
C            6.57545769908981       -2.00838632433239        0.86783842186237
C            7.75033293287221       -2.61160361150967        0.41733680481392
C            8.41692863736465       -3.52177281014042        1.21473290960452
C            7.92266413887914       -3.85486931268572        2.46579507512516
C            6.75219538508926       -3.26498829676196        2.91536142324784
C            6.08310441961224       -2.34727524683487        2.12886133509544
C            3.77728436466083       -2.26391278371581        0.09354653982529
C            2.39501428180579       -2.28549466810215        0.10091999787057
C            1.71764730009603       -1.08022013673913        0.07141906096297
N            0.36107023322996       -0.80004459808607        0.06163489599966
C           -0.92246690764638       -1.31570723779516        0.05585009311831
C           -1.35752908631303       -2.62831098454764        0.07303061095888
C           -2.71653140286808       -2.87674098081470        0.04966956204235
C           -3.64064205988986       -1.82937692102824       -0.01893248143588
N           -5.01575948692288       -2.10401198383927       -0.06226015076995
C           -5.49361726476475       -3.18991719435159       -0.80240934709783
C           -6.58814313562269       -3.92737864357845       -0.34871477337043
C           -7.05962351281888       -4.99891871807281       -1.08204811240179
C           -6.44665237342600       -5.36090497550936       -2.27096151589146
C           -5.35637624057593       -4.63565264652628       -2.72407585743685
C           -4.88345519117837       -3.55651821418943       -2.00270197598923
C           -5.90885710461860       -1.26290619438043        0.61289498184960
C           -5.57280202090353       -0.72876801228763        1.85754436724768
C           -6.44752974010373        0.11543353365969        2.51372510981822
C           -7.67220754112946        0.43438933639432        1.94906247543342
C           -8.01442988645686       -0.09837529647929        0.71651806584558
C           -7.14209010611249       -0.93611500101947        0.04827874897726
C           -3.20262788365378       -0.50672162012509       -0.04109540998379
C           -1.84981859082204       -0.22405581769806        0.01882658695785
C           -1.07863921570924        1.01261389320231        0.01857603114358
C            0.23640347189543        0.55467934151478        0.03210361595083
H            0.07722869486619        6.39439549603793        1.19613231361308
H            1.44521039610463        5.27775903076523        1.17698406072709
H           -0.00477779961536        4.88212462871200        2.10651745085756
H           -0.00634076357603        6.33798389335176       -1.35585186519804
H           -0.14275051626404        4.78721282156832       -2.19196432464905
H            1.36278883945964        5.22148882564799       -1.37519622351935
H           -2.18554727225864        6.75691453699785        0.01941229798642
H           -4.62298713614618        6.39483175727106        0.14475336333446
H           -5.53687247488375        4.11325690136326        0.23680322040326
H           -4.04887504917339        2.16905150720216        0.18820267770763
H            2.20769299827291        3.25904210460471       -0.03796425463974
H            4.36707980814614        1.08462747908211        0.04045373802653
H            5.17120690548547       -0.22507333488282       -2.33171231726687
H            6.40836882731992        1.36146828529005       -3.74054470402937
H            8.55563311909393        2.30565287743408       -2.96310357752406
H            9.44344223883229        1.65606405316121       -0.74979428023196
H            8.19975103625683        0.08402492651766        0.66985129169122
H            8.13309467299985       -2.36318163989048       -0.56198342961654
H            9.32497456979468       -3.98132803128086        0.85170263351980
H            8.44526546747571       -4.56845135786712        3.08510342755741
H            6.36067888835060       -3.51448848236143        3.89105351180154
H            5.17536069160977       -1.88296847100020        2.48631224974434
H            4.32519651520808       -3.19445761694585        0.10358455187232
H            1.86483352738693       -3.22492463059051        0.11750668541462
H           -0.65413716017731       -3.44534712130879        0.11216123634821
H           -3.07616091057476       -3.89441913388334        0.07726669246594
H           -7.06270203183452       -3.65430781896604        0.58273226555324
H           -7.90675364294397       -5.56156147125172       -0.71694169791129
H           -6.81564260075972       -6.20128792716778       -2.83955616726474
H           -4.87462205243191       -4.90644159619380       -3.65263975086400
H           -4.03966305610156       -2.98750618803051       -2.36546071525367
H           -4.62116853795515       -0.97996016942219        2.30329445473026
H           -6.17250124078028        0.52203005385319        3.47620290842693
H           -8.35400638767231        1.09341579314362        2.46543567615258
H           -8.96484645356046        0.14808686591235        0.26544755941784
H           -7.40731552632570       -1.33992086896629       -0.91813856619163
H           -3.93414760986488        0.28090780728641       -0.11289626916712
