91
 energy: -136.907306994501 gnorm: 0.000045129174 xtb: 6.7.1 (edcfbbe)
C            0.38435076201990        5.51184876249305        1.15082847245767
C           -0.22775031483755        4.80638711653484       -0.06514576681700
C            0.27726439222067        5.45249231828791       -1.36103337974663
C           -1.73540041337805        4.83120871216888        0.00106872351828
C           -2.56852918313969        5.92055701793930        0.03489745936367
C           -3.94654562292591        5.72399432071250        0.11532565678205
C           -4.46171355987445        4.43551118270712        0.16580954000326
C           -3.63264991251100        3.33224001522755        0.12883534806888
C           -2.24823953157837        3.51247755958784        0.03988419838195
C           -1.16560642230417        2.58413576783539       -0.00275987232708
C            0.06875651650842        3.31921977234584       -0.04468894128563
C            1.33895941549875        2.78805126894423       -0.05558300237283
C            1.45094564531586        1.37534207848906       -0.01460194822992
C            2.42063325701510        0.31938662563587        0.00467580693120
C            3.80735040501592        0.30063845911755       -0.00096913651244
C            4.47754852301020       -0.92335548328170        0.03629618753678
N            5.87256198074201       -0.94924978882112        0.03155449000357
C            6.58866869959010       -0.02008408359832       -0.72866838382632
C            6.10937232391896        0.39209414831279       -1.97375891006167
C            6.82203647523656        1.30647979606421       -2.72437321165217
C            8.02035318439623        1.82032419920146       -2.25299782047815
C            8.50038267035172        1.41509202972935       -1.01726309815549
C            7.79317338488678        0.50489200847981       -0.25602696308775
C            6.55685019870459       -1.90515683146140        0.78955722692478
C            7.72274981572952       -2.49677910594097        0.30070176241890
C            8.39593113248726       -3.43470861915314        1.05923460468680
C            7.91869342915379       -3.80081152626140        2.30837537796001
C            6.75859096441685       -3.21949878025639        2.79616318825564
C            6.07994510805692       -2.27758695566255        2.04786967187067
C            3.76144151335436       -2.13574751479820        0.07858905671183
C            2.37744237199836       -2.14477735192250        0.07733723707413
C            1.70327543948701       -0.94027657271639        0.04334753024325
N            0.35644230520306       -0.65400054057296        0.04290258035751
C           -0.90786450836800       -1.17206033318560        0.05434838527352
C           -1.34389200976981       -2.48679345008546        0.07931550455699
C           -2.69751254756511       -2.74409554649671        0.05393042816814
C           -3.62971329810971       -1.67980913772867       -0.00010835789130
N           -4.99242108701112       -1.96275579083791       -0.02951560727850
C           -5.89779020950650       -1.09858729640609        0.59962769941565
C           -5.58287025895675       -0.52525056936996        1.83283376440550
C           -6.47322562635886        0.33382161442314        2.44644764779130
C           -7.68783478328827        0.63041779355610        1.84700208880453
C           -8.00774566773766        0.05859056489047        0.62559225963691
C           -7.12256414688960       -0.79914458031524        0.00129916626315
C           -5.47004584062600       -3.08688829415054       -0.70928881435732
C           -4.86883056690952       -3.50163207107950       -1.89977113894457
C           -5.34359907661799       -4.61484188590290       -2.56543006884441
C           -6.42305382725988       -5.32554650143317       -2.06417859409605
C           -7.02682211429396       -4.91454249796998       -0.88550164271414
C           -6.55637857914538       -3.80678428223234       -0.20803249847000
C           -3.20107018131539       -0.35541013564371       -0.01551028615488
C           -1.84651735041606       -0.05540589315375        0.02277829873376
C           -1.08400169953661        1.16038239919527        0.00595961346136
C            0.23104847223940        0.71455199754001        0.01043167184066
H            0.10556862104136        6.56336599930762        1.15656506404541
H            1.46935340601824        5.43934136300268        1.12747040519131
H            0.02485230947513        5.05253157201228        2.06991890173611
H            1.36068844268922        5.37932699855636       -1.42516625049246
H           -0.00452502075279        6.50281017699404       -1.39330601507146
H           -0.15644440271599        4.95033866774323       -2.22399300701451
H           -2.16999906266981        6.92569592970380        0.00316572998091
H           -4.61255141413634        6.57460825690733        0.14329641536719
H           -5.53213563969514        4.29276288031648        0.23652102263288
H           -4.05711065869103        2.34306808519508        0.17934615568319
H            2.21173963482362        3.42214390252661       -0.08737597714588
H            4.36593782540879        1.22467409120065       -0.01141041532847
H            5.18227551752209       -0.01744840091294       -2.34706490895949
H            6.44301474753161        1.61359125438609       -3.68803429526294
H            8.57568306477022        2.53208382625805       -2.84488162585895
H            9.42873879699039        1.81721394531947       -0.63909222694740
H            8.16179796350978        0.20084465905743        0.71263547705848
H            8.08801897304583       -2.22176332310253       -0.67786236796078
H            9.29508464072931       -3.88843631344797        0.66913465718876
H            8.44769990348581       -4.53386873914732        2.89838609076398
H            6.38368906936453       -3.49504179468740        3.77089271876853
H            5.18297783704660       -1.81477959047253        2.43224807505411
H            4.30592852457357       -3.06686576538831        0.08865653019000
H            1.84295165369435       -3.08240666567736        0.09078235366951
H           -0.63638630881228       -3.30050791890723        0.12789530203032
H           -3.05887566777285       -3.75912712210918        0.09882645542299
H           -4.63958558042631       -0.76271098528418        2.30243619637795
H           -6.21847412215736        0.77143383669479        3.40031762752670
H           -8.37975106001954        1.30429572212256        2.32908392956189
H           -8.94940919731242        0.28969497522873        0.14991462972050
H           -7.36573693828518       -1.23192797890778       -0.95797215309880
H           -4.03897680370734       -2.93731880651710       -2.29878913614290
H           -4.87315163184251       -4.92367243584348       -3.48731439810290
H           -6.79239115136483       -6.19339825513380       -2.58909884672477
H           -7.86507036425477       -5.46604707921641       -0.48618489039459
H           -7.01873316500120       -3.49555615442923        0.71714417014988
H           -3.93528109156810        0.43034584297161       -0.08637665437031
