54
 energy: -89.303087066244 gnorm: 0.000088134543 xtb: 6.7.1 (edcfbbe)
N            5.93989290778687       -1.84101045814918        0.88686041907356
C            4.95746996909039       -1.28750094025450        0.62997294837683
C            3.76377148675031       -0.66418215861682        0.30154092434248
C            2.54437847730828       -1.28567698188492        0.56532798263950
C            1.34346959822726       -0.65995199638068        0.31400871665988
N            0.13374696186891       -1.23442037814753        0.68953699879165
C           -0.90178023792970       -0.57124880023261        1.32482207618190
C           -0.88205030069213        0.64132855653564        1.99957562276031
C           -2.06790673336978        1.09156011291556        2.54948513001453
C           -3.23691310877619        0.34135002112936        2.45945849504193
C           -3.24339079165098       -0.90225693623682        1.85125264776411
C           -2.06640490816676       -1.37165859169059        1.29121296431324
C           -1.69683428916309       -2.59573486639631        0.63221900660855
C           -2.39623053074233       -3.74157484445736        0.28995744481199
C           -1.72830759871550       -4.74928486724187       -0.38337385554416
C           -0.38501919754596       -4.61608992252047       -0.72809538206826
C            0.33307991707126       -3.48213991504427       -0.39909069882688
C           -0.32628135375873       -2.47575301651358        0.29515783128844
C            1.34048537310298        0.66888150713049       -0.31014497055737
N            0.12834368008988        1.23643102962637       -0.68849099441277
C           -0.90163497591486        0.56701697501355       -1.32625912395818
C           -0.87282295768673       -0.64535794022238       -2.00104647731353
C           -2.05455645951720       -1.10280519030879       -2.55384738762850
C           -3.22835031508319       -0.35977554725779       -2.46656937370222
C           -3.24392059414881        0.88372508089348       -1.85831133771391
C           -2.07118003586785        1.36031151955036       -1.29542267597298
C           -1.71057819760026        2.58664040913849       -0.63563685439218
C           -2.41766329423043        3.72830961566846       -0.29523636226140
C           -1.75738559557945        4.74018195296617        0.37938820089717
C           -0.41409554234470        4.61519980569927        0.72718507442108
C            0.31159245836240        3.48552693364731        0.40011711786086
C           -0.34010566304795        2.47499343091718       -0.29534166763339
C            2.53849571492821        1.30093166410165       -0.55946589239020
C            3.76070047409730        0.68572528828880       -0.29395965107718
C            4.95167740008412        1.31486310259181       -0.62110240874643
N            5.93189621376808        1.87273299630039       -0.87709599217836
H            2.55071964952099       -2.25409084884121        1.04543611077928
H            0.02930099634876        1.21007455711014        2.10589360502523
H           -2.08257569833680        2.04077229378083        3.06283759531571
H           -4.14618731704432        0.72856611741583        2.89315466827313
H           -4.14245197278812       -1.49791807268359        1.81737885537106
H           -3.44162573889845       -3.83911409517867        0.53889838571892
H           -2.25497051689617       -5.65163398723706       -0.65453772843423
H            0.10567791557511       -5.41377413103777       -1.26452955727193
H            1.36990572973172       -3.38541751065975       -0.68231079560379
H            0.04228081517386       -1.20845133508639       -2.10520788981812
H           -2.06216118720512       -2.05204220559278       -3.06730511768293
H           -4.13418850699387       -0.75253997210130       -2.90245445669772
H           -4.14670031983046        1.47385118581560       -1.82658669324547
H           -3.46304966580664        3.81948560981509       -0.54661370453220
H           -2.29011029187847        5.63939606948864        0.64911994112145
H            0.07055663842517        5.41601557144618        1.26444929321819
H            1.34836497820690        3.39514395804800        0.68562322951544
H            2.54050863091826        2.26940342299272       -1.03949599857157
