  54
        -89.39012822
 N          5.9278229199       -1.8171391081       -0.8933118799
 C          4.9508030465       -1.2788626891       -0.6317576673
 C          3.7336347119       -0.6360362958       -0.3091546529
 C          2.5238298363       -1.2444106834       -0.6232980517
 C          1.3148017454       -0.6273717736       -0.3256822165
 N          0.1188794827       -1.2441565084       -0.6850182343
 C         -0.3001664399       -2.4992530375       -0.2642826028
 C          0.3993173333       -3.4789225302        0.4218572345
 C         -0.2756470990       -4.6393963735        0.7543784150
 C         -1.6151188731       -4.8200486217        0.4228155428
 C         -2.3207539137       -3.8375729274       -0.2440407758
 C         -1.6634223484       -2.6658805813       -0.5909000996
 C         -2.0815506636       -1.4600945536       -1.2531164975
 C         -3.2830959016       -1.0375538709       -1.8030312447
 C         -3.3330095608        0.2039821285       -2.4068307406
 C         -2.1964944730        1.0011831011       -2.5041650732
 C         -0.9878601148        0.5975817218       -1.9687966038
 C         -0.9526208634       -0.6160175684       -1.3013874999
 C          1.3175583696        0.6243002045        0.3363849951
 N          0.1243127337        1.2459671956        0.6963330145
 C         -0.2909316862        2.5005086413        0.2695430630
 C          0.4133170941        3.4767336849       -0.4166134222
 C         -0.2590934891        4.6357820438       -0.7591261547
 C         -1.6006052440        4.8184642241       -0.4370550690
 C         -2.3104784872        3.8400052169        0.2312601021
 C         -1.6556916588        2.6699267324        0.5882547108
 C         -2.0790044037        1.4667357375        1.2519717175
 C         -3.2841878321        1.0475447396        1.7964765927
 C         -3.3395039543       -0.1926584001        2.4025375810
 C         -2.2050201052       -0.9919257033        2.5069811311
 C         -0.9928279763       -0.5916867017        1.9770016895
 C         -0.9517198431        0.6209348952        1.3081226699
 C          2.5292912382        1.2371853964        0.6316332989
 C          3.7363753101        0.6249642502        0.3146142636
 C          4.9564433169        1.2619815889        0.6378516065
 N          5.9376939239        1.8051177229        0.8734837693
 H          2.5222974629       -2.1929938123       -1.1395393494
 H          1.4343239400       -3.3470015336        0.7014023087
 H          0.2494611389       -5.4199167583        1.2842985094
 H         -2.1070079956       -5.7404921960        0.6989986599
 H         -3.3632602497       -3.9709592086       -0.4888559130
 H         -4.1559420568       -1.6707398771       -1.7615701637
 H         -4.2613250123        0.5565024529       -2.8302234247
 H         -2.2550203708        1.9529787304       -3.0102224804
 H         -0.1048569446        1.2090749751       -2.0784371225
 H          1.4498414971        3.3429478128       -0.6895674750
 H          0.2693547900        5.4128704337       -1.2908066618
 H         -2.0908855409        5.7369603699       -0.7225277959
 H         -3.3545957136        3.9747580892        0.4685357279
 H         -4.1555045301        1.6824380743        1.7495814070
 H         -4.2703190263       -0.5419513982        2.8231295968
 H         -2.2680426323       -1.9425793812        3.0146104512
 H         -0.1117630606       -1.2052238626        2.0911720354
 H          2.5321906374        2.1846037386        1.1500151347
