54
 energy: -89.390135178329 gnorm: 0.000072223810 xtb: 6.7.1 (edcfbbe)
N            5.93000327669994       -1.82780960376728       -0.87349604671645
C            4.95377423085253       -1.28525410521776       -0.61807818958631
C            3.73602462513783       -0.63855273162441       -0.30561475211098
C            2.52698119834709       -1.24755130189163       -0.62166488422708
C            1.31733134621541       -0.62892689338746       -0.33014423529260
N            0.12203350474403       -1.24570200677495       -0.69157645886762
C           -0.30019595594977       -2.49843245882375       -0.26646707440664
C            0.39734327431918       -3.47814662083704        0.42152122488446
C           -0.28125922114072       -4.63450130912505        0.76083187121585
C           -1.62236578969363       -4.81117554837709        0.43393083267300
C           -2.32575178344232       -3.82900966213053       -0.23571860505296
C           -1.66475292758054       -2.66145032819946       -0.58935579174196
C           -2.08065168392569       -1.45606560461265       -1.25372530327578
C           -3.28251591265511       -1.03044781892320       -1.80051395023102
C           -3.33035456698159        0.21047837698582       -2.40570574688055
C           -2.19158815221646        1.00379587445299       -2.50784503662675
C           -0.98259288797996        0.59701854890238       -1.97570720324470
C           -0.94924805579682       -0.61568352382608       -1.30660039489835
C            1.31857167853848        0.62428298335846        0.32932662690301
N            0.12433358731246        1.24451744396020        0.68837406656436
C           -0.29354078259054        2.49891638462902        0.26411895269322
C            0.40755498604966        3.47704115430700       -0.42252559325560
C           -0.26692380614544        4.63622075809165       -0.76042730132892
C           -1.60746099460264        4.81721031330621       -0.43352462559201
C           -2.31449241405627        3.83655799060627        0.23449749076180
C           -1.65767757908883        2.66620032824031        0.58667101108553
C           -2.07784760062392        1.46163255543913        1.24981274215110
C           -3.28135113085702        1.03946893147983        1.79568584679207
C           -3.33344659206832       -0.20169523073661        2.40003579946606
C           -2.19719749736873       -0.99857127337571        2.50246521056734
C           -0.98662498294890       -0.59524219596916        1.97130316993458
C           -0.94915641209737        0.61761554739468        1.30271137093268
C            2.52949999493776        1.23887475626052        0.62397937080707
C            3.73733760520499        0.62564104319070        0.31147052124942
C            4.95632638350536        1.26812148452376        0.62773169586940
N            5.93351593971300        1.80766597154956        0.88579335989888
H            2.52694735354942       -2.19791673392249       -1.13459401029188
H            1.43338956369319       -3.34900684995747        0.69832914244749
H            0.24196417971916       -5.41431275126434        1.29365025426870
H           -2.11728711009461       -5.72820981349833        0.71595647861101
H           -3.36942722464023       -3.95927030487074       -0.47718100866148
H           -4.15741891882325       -1.66052454863998       -1.75499415885512
H           -4.25881381747129        0.56533972483056       -2.82682945095749
H           -2.24875162674333        1.95518169989062       -3.01475921625434
H           -0.09796728529916        1.20556946772372       -2.08862788987003
H            1.44324779266820        3.34464737394734       -0.69913615289574
H            0.25914118526631        5.41496694656698       -1.29200807805082
H           -2.09902297200523        5.73647434518575       -0.71416713662781
H           -3.35772442216535        3.97019135911130        0.47603765057360
H           -4.15421785094975        1.67235841164538        1.75012418481155
H           -4.26326261430250       -0.55394039528878        2.82035795795654
H           -2.25757235299820       -1.95004870484721        3.00883271357196
H           -0.10393585433486       -1.20651293804644        2.08462517393914
H            2.53129955746462        2.18928523448533        1.13682379488289
