54
 energy: -89.390135369664 gnorm: 0.000025792287 xtb: 6.7.1 (edcfbbe)
N            1.83621162976252        6.37683130946145        0.84045585894021
C            1.28997972624860        5.40006893335059        0.59514436942970
C            0.63878144502976        4.18166451283076        0.29480729883199
C            1.25648206936621        2.97320285798170        0.59595042047583
C            0.63342909073471        1.76307377206084        0.31626550565265
N            1.25808122083188        0.56792091639145        0.66435433543257
C            0.64156854150380       -0.50235007244638        1.29459916498806
C           -0.55714090974803       -0.53498723245898        1.98848568404163
C           -0.95142428104033       -1.74268722115246        2.53281527218926
C           -0.15891528713496       -2.88083071642585        2.41822105548390
C            1.06909676498373       -2.83359735293265        1.78719002959551
C            1.48183009077978       -1.63308692160258        1.22764667365825
C            2.67301578093036       -1.21780812730058        0.53777759803954
C            3.83389475321462       -1.87855753745471        0.16235374160058
C            4.80172474387145       -1.17582856192163       -0.52851468630194
C            4.61726455430518        0.16436876772996       -0.85488755977532
C            3.46733320328287        0.84272995628222       -0.49398520076613
C            2.50225433957323        0.14584222366550        0.21503002179351
C           -0.63336170552475        1.76320412262597       -0.31665752724434
N           -1.25818794566176        0.56819029084723       -0.66493324466815
C           -0.64187455942041       -0.50211842967694       -1.29529543875698
C            0.55672467535776       -0.53485790541148       -1.98937177158091
C            0.95072038605552       -1.74255146123163       -2.53392660961301
C            0.15807898758947       -2.88060304959998       -2.41930515096186
C           -1.06973479473457       -2.83331146453678       -1.78789467517003
C           -1.48218621067346       -1.63281026067763       -1.22812552900274
C           -2.67307523986713       -1.21753546961959       -0.53774194205133
C           -3.83363072863906       -1.87836449061425       -0.16146124004042
C           -4.80103236236120       -1.17568290126908        0.53005278398471
C           -4.61653074102916        0.16458627696543        0.85610986100736
C           -3.46692064905596        0.84302930526190        0.49435468503775
C           -2.50219923432146        0.14612736418372       -0.21513557979718
C           -1.25632629642000        2.97343667095448       -0.59607463850395
C           -0.63853036936924        4.18178675808496       -0.29467768720021
C           -1.28963166637969        5.40030145800300       -0.59476947249217
N           -1.83581780522332        6.37710721996900       -0.84001454419206
H            2.21769660493872        2.97401008556603        1.08825047129485
H           -1.16418047287343        0.34933451908332        2.11136906880397
H           -1.89205167876955       -1.79922658179888        3.05949043591979
H           -0.50368768132669       -3.80819320287322        2.85001556791258
H            1.69927585585126       -3.70785896765735        1.73177414009755
H            3.97005826552020       -2.92149449067375        0.40373599622160
H            5.71341629867007       -1.67056445180667       -0.82766538994786
H            5.38579055451022        0.68703355499434       -1.40439306293365
H            3.33169227074930        1.87809904157104       -0.77025351469702
H            1.16390036324251        0.34937884646858       -2.11222333835387
H            1.89122278715813       -1.79916711841316       -3.06081784975868
H            0.50260472206733       -3.80794737937621       -2.85133459333150
H           -1.69998585186180       -3.70751246159653       -1.73236391828315
H           -3.96982667592150       -2.92135747724726       -0.40259052556239
H           -5.71240676123647       -1.67052152396904        0.83000317725470
H           -5.38473092776052        0.68722146859886        1.40609779215373
H           -3.33118691879635        1.87844044000289        0.77041743032818
H           -2.21755197099705        2.97441815878128       -1.08835374917105
