107
 energy: -173.828341679815 gnorm: 0.000118148150 xtb: 6.7.1 (edcfbbe)
C           11.90085484122937        3.25937285263596       -2.56343413904670
C           11.81569602657332        1.88284831829622       -2.43584332105951
C           10.67886986606914        1.30087653877476       -1.90627227004490
C            9.61884051140517        2.10097298900541       -1.49061862579584
N            8.46493574392531        1.51312674406330       -0.94971954137535
C            7.17136106722742        1.76097972656866       -1.34786840268720
C            6.71806779489306        2.58741714325350       -2.36697819995829
C            5.35522110054956        2.70045222135361       -2.54812793887870
C            4.46280423319096        2.02149974349248       -1.72006778690619
C            4.90761892166134        1.17471504419248       -0.72700481601286
C            6.27887242504858        0.99827693639326       -0.55299803646653
C            7.09516321346778        0.23050518309617        0.34601360035009
C            8.43674452828651        0.61528868097105        0.09550611757227
C            9.51470796019231        0.20403615797142        0.87801104433853
C            9.27572250720311       -0.63034905278972        1.94973326803922
C            7.98408531213693       -1.08862424276781        2.18660124931596
C            7.45350264097054       -1.96926592524781        3.19042631890386
C            8.01994415009647       -2.65034789982850        4.25756142095317
C            7.20962957447213       -3.46553165478971        5.02664241993108
C            5.85955921605850       -3.62126903567508        4.72744612316824
C            5.27500594913281       -2.95537931512203        3.66459169727938
C            6.07607754157440       -2.11069891122588        2.91229340204243
N            5.75572436407268       -1.35162639021139        1.79690380977526
C            4.55374266653721       -1.47287579995802        1.09832915132285
C            3.32527646119833       -1.28142167126581        1.75130364255833
C            2.14980032979564       -1.42659958972963        1.06789794804813
C            2.15386249495673       -1.79690266300548       -0.30213203637961
C            0.96044149195103       -1.95541393129471       -1.01476837182275
N            0.83376700396454       -2.30409578500825       -2.30251477743710
N           -0.42410033163440       -2.34668076511161       -2.59609318032058
C           -1.12942274600496       -2.02565038529737       -1.50261541837216
C           -2.52216379170992       -1.94952057717896       -1.39517644454554
C           -3.33782471832882       -2.22992420689553       -2.52290773850142
C           -4.69859404286433       -2.15152326129290       -2.43027872375146
C           -5.30828680350591       -1.76853401965823       -1.22224947230313
N           -6.69784686556258       -1.70025607211912       -1.11556603065431
C           -7.54427275513334       -2.77231718368705       -1.35422544562742
C           -7.26439167364001       -4.01085905721480       -1.91004368503974
C           -8.30200462561838       -4.92066006380704       -2.01211536292731
C           -9.58185180159357       -4.61518963545369       -1.55906940387531
C           -9.85704051300296       -3.39316554501280       -0.97289614678025
C           -8.83303556871286       -2.46402848111344       -0.86523895917431
C           -8.75078029342922       -1.14543721831894       -0.29982850763440
C           -9.69495616784559       -0.35752228039159        0.35002312203842
C           -9.33161959079390        0.88457128672660        0.82684466220827
C           -8.03707142907250        1.34257386518131        0.58621705458573
C           -7.06720965416617        0.60292312275677       -0.13655681714066
C           -5.94557992914417        1.48063242584487       -0.32510540760025
C           -4.75178410002096        1.40861049342354       -1.04033883988868
C           -3.88122484610132        2.47710890692782       -0.99753340376609
C           -4.17271803435659        3.62109853250902       -0.25628749505593
C           -5.37002494650401        3.74425817029185        0.41793204978752
C           -6.26468521395292        2.68489804934064        0.35162123125689
N           -7.52259160048832        2.58233657844653        0.90008249407315
C           -8.18724051119670        3.58285752313166        1.62569486150229
C           -8.29584977860583        4.86922295804829        1.10643621656835
C           -8.94542233889549        5.85203996289358        1.83021286199125
C           -9.49838217057266        5.55967319765005        3.06595042023705
C           -9.39689550337895        4.27780645498469        3.58057696946754
C           -8.74042191849846        3.29089582106077        2.86885805424080
C           -7.41928947306765       -0.70314299534863       -0.50185045617664
C           -4.50971208437454       -1.48697201992431       -0.09939865401187
C           -3.14953232329750       -1.58476914716824       -0.17544042501779
O           -0.28175488987866       -1.76342401222396       -0.44672346472483
C            3.40153412271253       -2.00113830147279       -0.94837195581045
C            4.56962560590645       -1.83128961700616       -0.26349674517808
C            6.89335983256416       -0.71223266903121        1.36283304394422
C            9.70799710148633        3.48412650418260       -1.61310174634320
C           10.84501807554723        4.05629423036453       -2.15307419138712
H           12.78823327396120        3.71006838804498       -2.98133110347239
H           12.63548093921383        1.25789227066525       -2.75754979197303
H           10.59949738672823        0.22718399235210       -1.82233086590986
H            7.41159853373940        3.12350801684120       -2.99709146650315
H            4.97374152520295        3.33574657730657       -3.33339965021610
H            3.40156507055880        2.15703853475694       -1.86314651653568
H            4.19697434974054        0.67484352059460       -0.09180906801998
H           10.50962469170565        0.56397926391947        0.66677789937265
H           10.08276949123390       -0.93348373811000        2.59824203711742
H            9.07179439084034       -2.54803409916994        4.47752458130933
H            7.63003684996126       -4.00007877398451        5.86538143606103
H            5.25549534972025       -4.27967448008177        5.33360290261509
H            4.23287234399335       -3.10134393598221        3.42670429334237
H            3.32312651575644       -0.97653731359469        2.78775817166343
H            1.20276663597493       -1.25418529285177        1.55543938274617
H           -2.85000261141065       -2.49427960044911       -3.44702884892319
H           -5.31942472465900       -2.33913024908716       -3.29393372720764
H           -6.27063636180247       -4.26586278381195       -2.24364653007219
H           -8.11211343500404       -5.88984071167275       -2.44838568114303
H          -10.36679953266943       -5.35008032373982       -1.65784707301299
H          -10.84511823973636       -3.16602572427388       -0.60222859225685
H          -10.70125917180632       -0.72234213870411        0.48437637350344
H          -10.04286365427167        1.50924938414964        1.34449957874472
H           -4.50980107477146        0.54466295442781       -1.63507239363737
H           -2.95321044005905        2.42502645340686       -1.54654066276765
H           -3.45776811728941        4.42962223507786       -0.22279932876267
H           -5.60547040493633        4.63588263793285        0.97923912580630
H           -7.88252960520044        5.08659096366948        0.13292745257201
H           -9.02714123418620        6.84892544275843        1.42319380167611
H          -10.00781830230272        6.32884557233005        3.62635334566795
H           -9.82428099104638        4.04648953599058        4.54493616050351
H           -8.64187923836355        2.29477232794805        3.27413059774684
H           -4.99110966898654       -1.20953819109552        0.82677364229790
H           -2.53258862979781       -1.38893394256509        0.68743135090120
H            3.39322479617392       -2.29496503694213       -1.98508233727398
H            5.52144655014795       -1.98654336772419       -0.74914188217922
H            8.89110544202078        4.10216409817075       -1.27169764380806
H           10.90973702491764        5.13019930152006       -2.24622086723800
