107
 energy: -173.910240323238 gnorm: 0.000038586206 xtb: 6.7.1 (edcfbbe)
C           11.86564756146992        3.32113454357133       -2.49392367300328
C           11.78928705738558        1.94398701818009       -2.36764257418017
C           10.65101522175176        1.35329067414396       -1.85115961746388
C            9.58024221203535        2.14481202661362       -1.44644534347727
N            8.42534193468361        1.54841030079874       -0.91842697243604
C            7.13397920830359        1.78699130584574       -1.33230492079081
C            6.68702973334410        2.61067398487590       -2.35552331305564
C            5.32526935317657        2.71271834427438       -2.55551378825261
C            4.42917642242343        2.02644661949602       -1.74030749050987
C            4.86990150119604        1.18201509312583       -0.74173342723251
C            6.23890398354033        1.01548258610017       -0.55099327134320
C            7.05220133269416        0.25060312479737        0.35699403711276
C            8.39251350040277        0.64580444101141        0.12251879344385
C            9.46634046653970        0.23236936105465        0.91143736265126
C            9.22245853248500       -0.61608145712620        1.96599707501022
C            7.92821986371116       -1.08732478900013        2.18414713998791
C            7.39650158472348       -1.98766096323706        3.16717424972236
C            7.96252266862553       -2.68590585043326        4.22584427734905
C            7.15538197525617       -3.51661513636472        4.97687490179619
C            5.80548445052058       -3.67032093779683        4.67186533836721
C            5.22113038165290       -2.98682175967026        3.62170923110096
C            6.02101435579704       -2.12850895963873        2.88380879726405
N            5.70042149759935       -1.34494146503349        1.78527526078127
C            4.51309172633708       -1.48632831048105        1.06123796316827
C            3.28167326580248       -1.30080952180551        1.68695907043381
C            2.11282908552958       -1.46435629731896        0.97316299283544
C            2.15952959061224       -1.82062144237944       -0.37466690962680
C            0.94631417538329       -1.99320706931500       -1.13355608062850
N            0.84846029712888       -2.33687343458041       -2.38602709690452
N           -0.45329446560547       -2.38221991995708       -2.68734978106907
C           -1.11365735282827       -2.06393531663668       -1.61061897215615
C           -2.54509348389477       -1.97629049044576       -1.46690647606165
C           -3.36100403423158       -2.26657230850790       -2.56203265307531
C           -4.73114742011129       -2.17676079177224       -2.44534449713819
C           -5.30609277958424       -1.79103021980545       -1.23415407241981
N           -6.69538815169542       -1.71139442935547       -1.10313806699046
C           -7.54392697946884       -2.79450434754396       -1.27759766043825
C           -7.28355493541159       -4.04325632917957       -1.81967599759797
C           -8.31927020660575       -4.95834487005315       -1.85672902565080
C           -9.58132376087161       -4.64785709177742       -1.35680562735380
C           -9.83660482063981       -3.41572734669589       -0.78910806063360
C           -8.81163210538459       -2.47973884712524       -0.74273963108744
C           -8.71500551848940       -1.14978847424839       -0.21164432200156
C           -9.64253403068532       -0.34936910478546        0.45440641784328
C           -9.26929474132609        0.89936627604466        0.89406470530079
C           -7.98258943900999        1.35424792193166        0.60471312661915
C           -7.03664137517682        0.60344055778615       -0.13602606823861
C           -5.91459515881598        1.47527888726671       -0.36344178521359
C           -4.74068581002954        1.39208044569094       -1.10751764015690
C           -3.86189612693760        2.45624540989297       -1.09530002818065
C           -4.12844315791981        3.60671824388954       -0.35758287778923
C           -5.30976720376788        3.74165390658811        0.34336770939514
C           -6.21072997744436        2.68696393597332        0.30836865947202
N           -7.45537822962914        2.59565580798898        0.88981703734390
C           -8.09656554310979        3.60802368834890        1.61941814659597
C           -8.21336962972399        4.88816587499918        1.08650647365256
C           -8.84041141036792        5.88321503737383        1.81334313276346
C           -9.36308167041386        5.60957050646157        3.06641242099322
C           -9.25330933941437        4.33417151655704        3.59516546582997
C           -8.61883902516962        3.33529380893491        2.88024369902677
C           -7.39873184307645       -0.70564611034345       -0.46843683740407
C           -4.49040493848007       -1.50803997512248       -0.13830306538481
C           -3.12033005630278       -1.59840675584976       -0.25340786534152
O           -0.27540916739599       -1.80317059197325       -0.57846030751619
C            3.39315145118263       -2.01063655981150       -1.00077966450670
C            4.55910663486964       -1.84529504577488       -0.28762036782357
C            6.84743250087973       -0.70189207969931        1.36002459263121
C            9.66081659711455        3.52869382472147       -1.56769219795591
C           10.79922848123400        4.10970245366091       -2.09505641304616
H           12.75430566321746        3.77873748669603       -2.90161124470255
H           12.61743399029768        1.32531839455827       -2.68020213010776
H           10.57916054563172        0.27901586380889       -1.76800697792298
H            7.38382544864913        3.15463094231936       -2.97525833097225
H            4.94918936046277        3.34723244955977       -3.34410407934705
H            3.36828996602128        2.15486979015524       -1.89468986426979
H            4.15397654699537        0.68099349013724       -0.11264819454744
H           10.46060721839708        0.60155238095561        0.71332411598223
H           10.02372536280308       -0.92536987751119        2.61882863880281
H            9.01312335571855       -2.58080130760578        4.45063129137869
H            7.57451464007953       -4.06514939612092        5.80730285061977
H            5.20192046405375       -4.34069628263243        5.26572043477860
H            4.17831734032113       -3.13058837041200        3.38292419282111
H            3.25117101061846       -1.00337455620119        2.72432665315138
H            1.15758165341122       -1.30929817614910        1.45185986800983
H           -2.89550121139314       -2.54908947499714       -3.49261429501096
H           -5.36666496033796       -2.37598906619729       -3.29473252554088
H           -6.30457369393431       -4.30292866812186       -2.19277836120217
H           -8.14373433228667       -5.93628979030765       -2.27982277660443
H          -10.36569937492628       -5.38838298586018       -1.40716468517162
H          -10.80989503574367       -3.18120164572197       -0.38526657736354
H          -10.64198326274355       -0.71648931427026        0.62817131896200
H           -9.96404326544585        1.53299151744269        1.42317378966704
H           -4.51972964275187        0.52529296987369       -1.70706710298646
H           -2.94919359736990        2.39493769600684       -1.66920602021693
H           -3.40967007829171        4.41259105434063       -0.34934657041380
H           -5.52774841732793        4.64026495322543        0.90064653680764
H           -7.82407286338916        5.09100186547070        0.09999779955954
H           -8.92878964235748        6.87498916061774        1.39519819779738
H           -9.85550861915929        6.38812731875667        3.62914623646715
H           -9.65714987738955        4.11733070898930        4.57301792386121
H           -8.51455180237042        2.34402743269520        3.29584670958241
H           -4.94326185206056       -1.21412412891451        0.79632273229050
H           -2.48781970585606       -1.37874057469549        0.59302965065742
H            3.40778128483048       -2.28920056734968       -2.04187325962407
H            5.51746277015099       -1.98844741099763       -0.76259539444067
H            8.83571922384535        4.14056332748903       -1.23493377193465
H           10.85690284103891        5.18418941398289       -2.18705804387960
