  107
       -173.91007983
 C         11.8907623852        3.3813212391       -2.4015126789
 C         11.8274755761        2.0025834295       -2.2864467128
 C         10.6855919147        1.3952652062       -1.7977674187
 C          9.5979421761        2.1716658893       -1.4093139615
 N          8.4394447827        1.5593479933       -0.9081920644
 C          7.1536638912        1.7907627016       -1.3427763158
 C          6.7190431569        2.6153457389       -2.3705582486
 C          5.3603926422        2.7084347833       -2.5944543712
 C          4.4551928002        2.0128879828       -1.7974056748
 C          4.8843268399        1.1677549934       -0.7943645471
 C          6.2509058708        1.0092679170       -0.5804019731
 C          7.0540722956        0.2445336510        0.3369737200
 C          8.3954827340        0.6501065021        0.1265045391
 C          9.4599448975        0.2389129544        0.9290670853
 C          9.2058558673       -0.6194162250        1.9729716652
 C          7.9116190365       -1.1005328209        2.1676309323
 C          7.3727698976       -2.0109415048        3.1371336340
 C          7.9291916854       -2.7135846864        4.1980395442
 C          7.1173013096       -3.5543755847        4.9324499877
 C          5.7724163251       -3.7137686366        4.6085860120
 C          5.1977465605       -3.0259085068        3.5560218941
 C          6.0020422251       -2.1572489111        2.8350314486
 N          5.6914749404       -1.3679333491        1.7377875676
 C          4.5055545563       -1.5028420661        1.0103431606
 C          3.2748028255       -1.3210111978        1.6384533255
 C          2.1052219977       -1.4825785054        0.9258276911
 C          2.1502493854       -1.8330974675       -0.4235683159
 C          0.9339369520       -2.0048094605       -1.1777685507
 N          0.8273727867       -2.3495269294       -2.4292030705
 N         -0.4767030976       -2.3941443772       -2.7215875679
 C         -1.1293152298       -2.0739909079       -1.6407919759
 C         -2.5592272091       -1.9844655523       -1.4831734316
 C         -3.3888274713       -2.2862451148       -2.5646724171
 C         -4.7575418270       -2.1960743439       -2.4308921756
 C         -5.3169438647       -1.7979786159       -1.2164660632
 N         -6.7045927375       -1.7194169576       -1.0674504194
 C         -7.5514240813       -2.8078934606       -1.2142912499
 C         -7.2929695229       -4.0640931962       -1.7398523454
 C         -8.3245950221       -4.9844709253       -1.7463899306
 C         -9.5807187011       -4.6714325680       -1.2331970437
 C         -9.8339525293       -3.4309473384       -0.6830728850
 C         -8.8128898381       -2.4896590122       -0.6670323162
 C         -8.7139604858       -1.1515871994       -0.1572475773
 C         -9.6357649526       -0.3445715121        0.5087726980
 C         -9.2606143453        0.9107624665        0.9274402274
 C         -7.9779658708        1.3642245749        0.6185525678
 C         -7.0389595949        0.6064110384       -0.1240458142
 C         -5.9198072169        1.4766086129       -0.3714951896
 C         -4.7528146779        1.3867148905       -1.1256858005
 C         -3.8736837453        2.4506524472       -1.1307492678
 C         -4.1330360181        3.6075378711       -0.4005365147
 C         -5.3082068037        3.7491858388        0.3093505622
 C         -6.2098013179        2.6945955947        0.2914839755
 N         -7.4489996651        2.6089098873        0.8853238639
 C         -8.0841378529        3.6301233085        1.6078627191
 C         -8.2040783052        4.9037839077        1.0601558204
 C         -8.8241197313        5.9084519097        1.7796729744
 C         -9.3370084803        5.6507673893        3.0401916616
 C         -9.2245447888        4.3817527403        3.5835422760
 C         -8.5966725102        3.3734245384        2.8760085373
 C         -7.4023387826       -0.7071901615       -0.4368777468
 C         -4.4874365532       -1.5023739950       -0.1344489274
 C         -3.1190317833       -1.5935867689       -0.2664653159
 O         -0.2837229406       -1.8129644897       -0.6147508944
 C          3.3830564854       -2.0180677239       -1.0526143719
 C          4.5501630133       -1.8546367299       -0.3403823560
 C          6.8398612247       -0.7155476945        1.3311113236
 C          9.6653420157        3.5572570787       -1.5192290918
 C         10.8074440584        4.1548759645       -2.0191596428
 H         12.7824164213        3.8518798364       -2.7872885042
 H         12.6689412482        1.3955606389       -2.5860199129
 H         10.6242520723        0.3196539432       -1.7244163730
 H          7.4229179582        3.1667759130       -2.9754999832
 H          4.9938018936        3.3428847226       -3.3875408455
 H          3.3962901982        2.1340956404       -1.9700763848
 H          4.1607914853        0.6601104597       -0.1795319758
 H         10.4543874961        0.6168143426        0.7492803640
 H          9.9989431194       -0.9287455238        2.6356776161
 H          8.9762125481       -2.6042297996        4.4370083414
 H          7.5287388643       -4.1064914892        5.7643417686
 H          5.1651515605       -4.3920846515        5.1895005743
 H          4.1590446067       -3.1743340146        3.3025189264
 H          3.2456663627       -1.0287303662        2.6772910234
 H          1.1505802475       -1.3311706603        1.4067848318
 H         -2.9354815938       -2.5783945688       -3.4982993667
 H         -5.4041030801       -2.4051644848       -3.2695464397
 H         -6.3181356098       -4.3253299992       -2.1226343391
 H         -8.1504729924       -5.9686388027       -2.1554158809
 H        -10.3618827681       -5.4165798286       -1.2591609050
 H        -10.8023116205       -3.1943087909       -0.2687141305
 H        -10.6321488833       -0.7118219652        0.6991413710
 H         -9.9507814371        1.5498010694        1.4560456549
 H         -4.5375866185        0.5148598524       -1.7199151014
 H         -2.9662114715        2.3839632857       -1.7123010773
 H         -3.4136416756        4.4128815217       -0.4051884670
 H         -5.5211047803        4.6527043680        0.8606132490
 H         -7.8224622161        5.0939785350        0.0681290212
 H         -8.9150407862        6.8950276754        1.3499437066
 H         -9.8238553365        6.4368164259        3.5973505753
 H         -9.6200327827        4.1776334673        4.5675146886
 H         -8.4888871882        2.3876747750        3.3036010149
 H         -4.9283797319       -1.1987870386        0.8027937978
 H         -2.4757016745       -1.3655039943        0.5695314001
 H          3.3964004398       -2.2919108693       -2.0949299025
 H          5.5080011526       -1.9946604085       -0.8172365812
 H          8.8267152004        4.1573717730       -1.1991835749
 H         10.8546487857        5.2305532175       -2.1024825862
