107
 energy: -173.910222885914 gnorm: 0.000055754542 xtb: 6.7.1 (edcfbbe)
C           11.92078365151858        3.29338020363421       -2.05177883496534
C           11.82518623276579        1.91212264949406       -2.08759818375526
C           10.67483468958497        1.28130504503207       -1.65155600641549
C            9.61122192804152        2.03519077145327       -1.16451637152056
N            8.44397746724213        1.39786131488581       -0.71772909242783
C            7.15947415002574        1.70339623940416       -1.10833183918527
C            6.73270029500682        2.64694398868473       -2.03180007844654
C            5.37420870464604        2.79242337679077       -2.22706195291428
C            4.46173878267145        2.03024462133202       -1.50249223541243
C            4.88216952319816        1.06910939959439       -0.60588347797411
C            6.24703719776570        0.86044274574945       -0.42740484394549
C            7.04187428031905       -0.01778921445786        0.38980207643338
C            8.38979195447612        0.38040411999068        0.21032419709804
C            9.45145935537031       -0.14048001187590        0.95057269096808
C            9.18699259153673       -1.10302689443846        1.89662628265282
C            7.88395979481104       -1.57496946305548        2.05172360475205
C            7.33142168171747       -2.57571040649862        2.91941499886428
C            7.87915576761448       -3.40311169121204        3.89107289264319
C            7.05389114090522       -4.30304457801979        4.53501438510893
C            5.70378603029586       -4.39732081573472        4.20757767045263
C            5.13739267606546       -3.58509699192809        3.24271548627481
C            5.95577119464249       -2.65922014115041        2.61502164740980
N            5.65493103769875       -1.74643545458453        1.61502631020957
C            4.47067750817003       -1.78394483865901        0.87320175287827
C            3.23782068338280       -1.65287217425597        1.50976154598472
C            2.07147394310988       -1.71713751521729        0.77619869805805
C            2.12220252955761       -1.91881215548158       -0.60308509145145
C            0.91219371212579       -1.99261785331312       -1.38288574315835
N            0.81979504281816       -2.20274807502752       -2.66495486473828
N           -0.48006953046370       -2.20197126193851       -2.97730834320534
C           -1.14487030496818       -1.98992712622003       -1.87740472220027
C           -2.57653770527017       -1.90334242297635       -1.73496075160895
C           -3.38687302065547       -2.08984778518076       -2.85653141588782
C           -4.75716910107296       -2.00119649217320       -2.74083643473454
C           -5.33766196456318       -1.71896935893934       -1.50407438972258
N           -6.72737767963209       -1.64124360848997       -1.37527436428550
C           -7.58106063662971       -2.70055137486464       -1.64451072595088
C           -7.32462821924157       -3.90059742269209       -2.28879907029086
C           -8.36526399030899       -4.80295170450795       -2.40829312806682
C           -9.62829018778709       -4.52804962880874       -1.89028714634682
C           -9.87990384376785       -3.34658676177671       -1.22210645778888
C           -8.85002272352081       -2.42399330061807       -1.09178264075957
C           -8.74893520536874       -1.14373058616576       -0.45073990672608
C           -9.67585350372457       -0.39551504479263        0.27427684136527
C           -9.29812881349976        0.81013307977934        0.81806975490455
C           -8.00692235545969        1.27926511902041        0.57510745481964
C           -7.06076484026084        0.58648699202939       -0.21984090345657
C           -5.93185601750539        1.46664018085906       -0.36697621351831
C           -4.75307551700101        1.43710201565866       -1.10737300824921
C           -3.86760560375408        2.49042706849746       -1.00112296682429
C           -4.13238155357827        3.57780053208225       -0.17267146861194
C           -5.31786938559993        3.66242374300396        0.52915872092408
C           -6.22512175954708        2.62038618423747        0.40120046315370
N           -7.47422824080396        2.48935209693710        0.96532028149239
C           -8.11209123818562        3.43924230549098        1.77716306330692
C           -8.21803175351847        4.76166134048183        1.35723695323141
C           -8.84138031217573        5.69409470568293        2.16574139802862
C           -9.37114030066957        5.31621133263199        3.38835427333796
C           -9.27232429377543        3.99886869683545        3.80444457787715
C           -8.64162382338158        3.06157825238280        3.00755547245119
C           -7.42859835716000       -0.68792178230313       -0.66229323417377
C           -4.52764939615818       -1.53889661873564       -0.38260194178772
C           -3.15744330718122       -1.62942918112480       -0.49652368277544
O           -0.31143952126738       -1.84713887010169       -0.81856272440197
C            3.35732851789673       -2.05249102291039       -1.24077200068208
C            4.52074312512216       -1.98594602713258       -0.50775596989593
C            6.81501920471897       -1.07746709034461        1.27344429379709
C            9.71113810244375        3.42252120997278       -1.12279061080738
C           10.86148903316703        4.04498303757455       -1.57096928935584
H           12.81883217825481        3.78283125312055       -2.39713565903600
H           12.64776915279720        1.32252332485477       -2.46443057115118
H           10.58806591711824        0.20580415207246       -1.69512170073697
H            7.44223429641023        3.24815281326005       -2.58006145686959
H            5.01371673840067        3.51960408852945       -2.93922170091800
H            3.40409822169682        2.19197695215616       -1.64757642631055
H            4.15408905427536        0.50952027544021       -0.04366982390562
H           10.45281871545992        0.23286744049072        0.80230918671470
H            9.97888564072839       -1.50044408629447        2.51213240959656
H            8.92978995786581       -3.34274847176569        4.13162201997141
H            7.45868243387879       -4.95253977903077        5.29690213267685
H            5.08571102123785       -5.12301696806021        4.71522165718510
H            4.09403014671046       -3.68230424074594        2.98367699903878
H            3.20465592284294       -1.47583106822592        2.57423733033839
H            1.11529680088647       -1.60451512705072        1.26481625795228
H           -2.91691755123453       -2.29270086596465       -3.80546429518543
H           -5.38836191127425       -2.12109130574544       -3.60817113569956
H           -6.34501192399219       -4.13351814718715       -2.67761422924110
H           -8.19297035493319       -5.74270416802498       -2.91166536795214
H          -10.41651902473761       -5.25692147305493       -2.00693765513337
H          -10.85414823949114       -3.14108005096935       -0.80496837334928
H          -10.67851070064230       -0.76940688203018        0.41125523808009
H           -9.99259313413963        1.40216975670831        1.39368990525683
H           -4.53321059109172        0.62132152928547       -1.77500138772272
H           -2.95103866179370        2.47033214304065       -1.57178372873191
H           -3.40861556670897        4.37525389729908       -0.09293141180405
H           -5.53404898298816        4.51335722241111        1.15743988639148
H           -7.82328093338587        5.04690474556775        0.39355193859264
H           -8.92120491050834        6.71913157981836        1.83529151222246
H           -9.86048759320263        6.04636612143918        4.01502283669909
H           -9.68176629478399        3.70055940167192        4.75820597616670
H           -8.54582340152913        2.03715795286576        3.33556852067341
H           -4.98495237401325       -1.32427612802370        0.57124965885019
H           -2.52925140923679       -1.48966575936637        0.36986630245606
H            3.37494584710919       -2.21077158990876       -2.30675315166220
H            5.48016204982621       -2.08718682799767       -0.99129231398523
H            8.89145227379132        4.00303173571151       -0.72652722341493
H           10.93402266726984        5.12195793230434       -1.53661581618034
