  56
  -83.6800646458000       0.416603055199024      !
 C         -7.8701685769        0.3139373926        0.1553715479
 C         -7.3138338599        0.7977606068        1.3502112350
 C         -5.9590310483        0.8043164095        1.5284543681
 C         -5.0971655467        0.3277561005        0.5181841055
 C         -3.6966089704        0.3260900390        0.6704645599
 C         -2.8727216029       -0.1390067298       -0.3243829563
 C         -1.4045410877       -0.1336030533       -0.1602667928
 C         -0.7093441729       -1.3481485723       -0.0715470293
 C         -1.3818485629       -2.5982999492       -0.1014580116
 C         -0.6943906196       -3.7712649049       -0.0432018707
 C          0.7119178819       -3.7675690496        0.0471689762
 C          1.3925461152       -2.5907002987        0.1054747791
 C          0.7129303274       -1.3445967900        0.0699321302
 C          1.4030094508       -0.1270550416        0.1522638562
 C          2.8704850337       -0.1268252165        0.3257836079
 C          3.4291869246       -0.5757550137        1.5420436236
 C          4.7810562747       -0.5765472864        1.7300794215
 C          5.6544229847       -0.1351008517        0.7134809637
 C          7.0548736638       -0.1234394129        0.8760248312
 C          7.8708603613        0.3118944962       -0.1305682774
 C          7.3236874097        0.7548133631       -1.3454155248
 C          5.9702707258        0.7561645506       -1.5336335844
 C          5.1007384289        0.3139339074       -0.5143479134
 C          3.7013212831        0.3079540044       -0.6768753251
 C          0.7070886960        1.0877377262        0.0759225577
 C          1.3718197663        2.3377881415        0.1842693989
 C          0.6908036038        3.5111709836        0.0807275402
 C         -0.7003899137        3.5076805207       -0.1435390796
 C         -1.3791087865        2.3313492150       -0.2275024096
 C         -0.7120249670        1.0843957132       -0.0994762084
 C         -3.4407074922       -0.6243845111       -1.5221439191
 C         -4.7940559529       -0.6328591096       -1.6991192714
 C         -5.6600443998       -0.1605425405       -0.6901099805
 C         -7.0617232696       -0.1548729544       -0.8421054311
 H         -8.9432945254        0.3158968032        0.0322930051
 H         -7.9677125891        1.1638623537        2.1279477844
 H         -5.5252953849        1.1758908607        2.4461898240
 H         -3.2706529885        0.6939048820        1.5937116134
 H         -2.4594403364       -2.6028885350       -0.1695791972
 H         -1.2206707297       -4.7142916575       -0.0685564840
 H          1.2431633248       -4.7076958992        0.0740543235
 H          2.4700007068       -2.5881589589        0.1764439859
 H          2.7637953895       -0.9107062741        2.3249306836
 H          5.2029896740       -0.9160075865        2.6654698441
 H          7.4707802957       -0.4638617529        1.8134227542
 H          8.9430226977        0.3184509789        0.0005032076
 H          7.9835889615        1.0941480996       -2.1302852756
 H          5.5435491842        1.0961500521       -2.4665809922
 H          3.2818248002        0.6494668509       -1.6137213656
 H          2.4381496355        2.3412435252        0.3531521144
 H          1.2113862632        4.4538615737        0.1650144376
 H         -1.2229806608        4.4476758418       -0.2440130801
 H         -2.4451747883        2.3305041465       -0.3979181554
 H         -2.7810726675       -0.9820538237       -2.3001609908
 H         -5.2229225324       -1.0023209515       -2.6200539216
 H         -7.4848128232       -0.5278163930       -1.7642173762
  56
  -83.6799572084000       0.371832751332738      !
 C         -7.8872688108       -0.1258995977       -0.1091683787
 C         -7.4330752684       -0.4782220895        1.1716072831
 C         -6.0948445313       -0.5062869973        1.4469354446
 C         -5.1474979934       -0.1840595995        0.4523977564
 C         -3.7609242214       -0.2122162460        0.7032825260
 C         -2.8546421742        0.0996923668       -0.2789860430
 C         -1.3978931740        0.0574454331       -0.0356098681
 C         -0.7544608660       -1.1719710577        0.1676942232
 C         -1.4688856570       -2.3989457273        0.1806012113
 C         -0.8308553690       -3.5864498791        0.3657189528
 C          0.5679863179       -3.6242008980        0.5309947267
 C          1.2928582719       -2.4730272180        0.5040428947
 C          0.6655894649       -1.2108796669        0.3318487830
 C          1.4069683209       -0.0220553613        0.2850722054
 C          2.8804254423       -0.0695582843        0.3917111202
 C          3.4954797166       -0.3992333053        1.6180896197
 C          4.8556814859       -0.4513497614        1.7232326549
 C          5.6802068422       -0.1831699148        0.6099609876
 C          7.0873425325       -0.2353655021        0.6833849291
 C          7.8541390510        0.0301928221       -0.4165018200
 C          7.2494425530        0.3607959357       -1.6397371182
 C          5.8883154273        0.4202708403       -1.7432004235
 C          5.0687868843        0.1505564802       -0.6269254983
 C          3.6633509723        0.2018715160       -0.7027384506
 C          0.7600853966        1.2097330483        0.1134711524
 C          1.4754808841        2.4360258470        0.1170191643
 C          0.8349955820        3.6269492501       -0.0352420353
 C         -0.5650145131        3.6665385194       -0.1906542212
 C         -1.2886662994        2.5140972605       -0.1909951850
 C         -0.6595328901        1.2494818051       -0.0468777249
 C         -3.3213214353        0.4597889679       -1.5621137162
 C         -4.6577601559        0.4932499237       -1.8352476807
 C         -5.6076603171        0.1727410647       -0.8422838119
 C         -6.9946193457        0.1930047958       -1.0937827701
 H         -8.9487218224       -0.1096732983       -0.3088509365
 H         -8.1525685304       -0.7273886592        1.9378696711
 H         -5.7404405810       -0.7776764996        2.4314004203
 H         -3.4140121095       -0.4798809754        1.6918655159
 H         -2.5383839002       -2.3744010269        0.0357635860
 H         -1.3903605114       -4.5103832042        0.3772097470
 H          1.0596404075       -4.5762620086        0.6674095301
 H          2.3668214767       -2.5042794664        0.6105904485
 H          2.8684912797       -0.6025712321        2.4745547779
 H          5.3220569243       -0.7011648058        2.6659071938
 H          7.5484561129       -0.4901107178        1.6272533722
 H          8.9316549864       -0.0124230489       -0.3535949109
 H          7.8710708663        0.5674927428       -2.4986994423
 H          5.4168405782        0.6747272664       -2.6819974511
 H          3.1991360447        0.4529374693       -1.6464632685
 H          2.5460189246        2.4071639465        0.2550217228
 H          1.3930323248        4.5518029370       -0.0274425572
 H         -1.0587219571        4.6212132942       -0.2984626298
 H         -2.3634749727        2.5466625794       -0.2898032130
 H         -2.5964411856        0.7004326493       -2.3266803779
 H         -5.0082712987        0.7652733207       -2.8209147872
 H         -7.3381829706        0.4647721760       -2.0820043239
  56
  -83.6792699346000       0.179679475182476      !
 C         -7.8803280048        0.0273192958        0.1792684692
 C         -7.3484215955        0.0640360517        1.4779300489
 C         -5.9955503033        0.0689062882        1.6704947289
 C         -5.1113000536        0.0367911204        0.5718907480
 C         -3.7116305399        0.0348056351        0.7378874846
 C         -2.8699289735        0.0005596939       -0.3441322492
 C         -1.3993834191       -0.0124544369       -0.1671957500
 C         -0.7296896947       -1.2335571448       -0.0247357406
 C         -1.4255054056       -2.4707313707       -0.0512839862
 C         -0.7624185089       -3.6529452165        0.0658121266
 C          0.6395304536       -3.6702870301        0.2131242141
 C          1.3425643410       -2.5056953092        0.2482499664
 C          0.6898759381       -1.2495306394        0.1396032028
 C          1.4021956782       -0.0425650686        0.1634279713
 C          2.8693217758       -0.0655001550        0.3459594162
 C          3.4091140650       -0.3950596235        1.6073674751
 C          4.7600848556       -0.4275049754        1.8004430442
 C          5.6498759566       -0.1411775340        0.7436070869
 C          7.0499968090       -0.1750086255        0.9074695937
 C          7.8822854151        0.1029448089       -0.1402439690
 C          7.3528677048        0.4289436543       -1.3991922244
 C          6.0005774986        0.4724458849       -1.5894843587
 C          5.1143214409        0.1895774298       -0.5287647427
 C          3.7157304637        0.2231938704       -0.6949281367
 C          0.7317011263        1.1791767784        0.0152472283
 C          1.4187881768        2.4211269002        0.0473095369
 C          0.7534954550        3.5985227015       -0.1036307314
 C         -0.6440036956        3.6099080303       -0.2892964723
 C         -1.3427140440        2.4427865190       -0.3095450810
 C         -0.6875163465        1.1927034797       -0.1564972523
 C         -3.4110847832       -0.0296506122       -1.6464456237
 C         -4.7625359818       -0.0293354970       -1.8382631081
 C         -5.6494394903        0.0017328153       -0.7412308788
 C         -7.0498172129       -0.0023494861       -0.9057467315
 H         -8.9522604600        0.0226615920        0.0460365170
 H         -8.0195077059        0.0883604804        2.3240834215
 H         -5.5810787615        0.0963440735        2.6683227594
 H         -3.3027412825        0.0588613702        1.7385525102
 H         -2.4987025408       -2.4532610976       -0.1722752278
 H         -1.3029921152       -4.5877025788        0.0410213524
 H          1.1504915330       -4.6184720327        0.2941929625
 H          2.4173425848       -2.5205527725        0.3524428475
 H          2.7309635966       -0.6161615349        2.4192314608
 H          5.1681888804       -0.6763605656        2.7699754769
 H          7.4523108683       -0.4265656355        1.8786940750
 H          8.9540158342        0.0735009789       -0.0086531437
 H          8.0259168430        0.6442685099       -2.2161960807
 H          5.5869330047        0.7232944193       -2.5560806318
 H          3.3093927284        0.4737418360       -1.6651074894
 H          2.4882544123        2.4142284101        0.1966847530
 H          1.2906786087        4.5353339592       -0.0792089883
 H         -1.1538328706        4.5545049469       -0.4093515799
 H         -2.4147138727        2.4468408310       -0.4423047490
 H         -2.7335025676       -0.0545513241       -2.4879049494
 H         -5.1737664739       -0.0543695265       -2.8376144272
 H         -7.4540106111       -0.0301434723       -1.9078691150
  56
  -83.6776359749000       3.188471828576162E-002 !
 C         -7.7667798389        0.3465067355       -0.8250524744
 C         -7.5113752703        0.7694091529        0.4888458910
 C         -6.2387655895        0.7494235906        0.9875611552
 C         -5.1596713902        0.3073534828        0.1936479837
 C         -3.8331358587        0.2930807477        0.6733534072
 C         -2.7980858869       -0.1296658501       -0.1213956411
 C         -1.3829541255       -0.1192151232        0.3017252108
 C         -0.6953932146       -1.3365017039        0.4165680403
 C         -1.3809303496       -2.5786441179        0.3799770769
 C         -0.7077909349       -3.7585286215        0.4631974821
 C          0.6973177895       -3.7677370930        0.5678796185
 C          1.3915332604       -2.5978194321        0.6110382434
 C          0.7258404894       -1.3450568134        0.5657296346
 C          1.4211237949       -0.1287576676        0.6218857674
 C          2.8959495738       -0.1152239503        0.5341508865
 C          3.7195117719       -0.5896120282        1.5756769665
 C          5.0782085922       -0.6098373206        1.4322642848
 C          5.6915042098       -0.1654526944        0.2415072130
 C          7.0884772712       -0.1974513802        0.0506939435
 C          7.6433487158        0.2380929936       -1.1202126550
 C          6.8291386111        0.7312499904       -2.1525943898
 C          5.4726783274        0.7777119238       -1.9980560153
 C          4.8691054143        0.3290664746       -0.8043444286
 C          3.4738770178        0.3452211256       -0.6240562035
 C          0.7187200856        1.0846002830        0.6451449865
 C          1.3880836528        2.3217838578        0.8344761786
 C          0.7071383816        3.4998737125        0.8319488019
 C         -0.6850814673        3.5132495553        0.6147601620
 C         -1.3646537016        2.3481508111        0.4327438308
 C         -0.7003104728        1.0943111912        0.4700358248
 C         -3.0705030423       -0.5738739489       -1.4351942434
 C         -4.3421039911       -0.5688827757       -1.9269947157
 C         -5.4204775551       -0.1239568681       -1.1335475440
 C         -6.7436954179       -0.0923462538       -1.6179541934
 H         -8.7782042310        0.3714209264       -1.2034059370
 H         -8.3316513165        1.1123707597        1.1022764588
 H         -6.0390400388        1.0765368109        1.9982861273
 H         -3.6412386722        0.6176564545        1.6868900230
 H         -2.4581769194       -2.5688362087        0.3020601853
 H         -1.2439727444       -4.6960491441        0.4476494790
 H          1.2180618329       -4.7129207522        0.6157650605
 H          2.4680350262       -2.6081480080        0.6911512586
 H          3.2581473032       -0.9301948781        2.4918670832
 H          5.7062538646       -0.9740909611        2.2332575611
 H          7.7130914009       -0.5766139932        0.8471895877
 H          8.7137780420        0.2067585523       -1.2614459882
 H          7.2854229255        1.0721326771       -3.0705190379
 H          4.8384783357        1.1543635735       -2.7881790289
 H          2.8473009789        0.7142867361       -1.4243063208
 H          2.4554010414        2.3077220945        0.9992123512
 H          1.2275496445        4.4326944523        0.9922793416
 H         -1.2083872837        4.4580772611        0.5965688552
 H         -2.4310445159        2.3624211823        0.2664171190
 H         -2.2445743688       -0.9079388390       -2.0466716369
 H         -4.5407321713       -0.9027161661       -2.9356362830
 H         -6.9318581735       -0.4193469169       -2.6309126694
