  56
        -84.02741964
 C         -7.8701685769        0.3139373926        0.1553715479
 C         -7.3138338599        0.7977606068        1.3502112350
 C         -5.9590310483        0.8043164095        1.5284543681
 C         -5.0971655467        0.3277561005        0.5181841055
 C         -3.6966089704        0.3260900390        0.6704645599
 C         -2.8727216029       -0.1390067298       -0.3243829563
 C         -1.4045410877       -0.1336030533       -0.1602667928
 C         -0.7093441729       -1.3481485723       -0.0715470293
 C         -1.3818485629       -2.5982999492       -0.1014580116
 C         -0.6943906196       -3.7712649049       -0.0432018707
 C          0.7119178819       -3.7675690496        0.0471689762
 C          1.3925461152       -2.5907002987        0.1054747791
 C          0.7129303274       -1.3445967900        0.0699321302
 C          1.4030094508       -0.1270550416        0.1522638562
 C          2.8704850337       -0.1268252165        0.3257836079
 C          3.4291869246       -0.5757550137        1.5420436236
 C          4.7810562747       -0.5765472864        1.7300794215
 C          5.6544229847       -0.1351008517        0.7134809637
 C          7.0548736638       -0.1234394129        0.8760248312
 C          7.8708603613        0.3118944962       -0.1305682774
 C          7.3236874097        0.7548133631       -1.3454155248
 C          5.9702707258        0.7561645506       -1.5336335844
 C          5.1007384289        0.3139339074       -0.5143479134
 C          3.7013212831        0.3079540044       -0.6768753251
 C          0.7070886960        1.0877377262        0.0759225577
 C          1.3718197663        2.3377881415        0.1842693989
 C          0.6908036038        3.5111709836        0.0807275402
 C         -0.7003899137        3.5076805207       -0.1435390796
 C         -1.3791087865        2.3313492150       -0.2275024096
 C         -0.7120249670        1.0843957132       -0.0994762084
 C         -3.4407074922       -0.6243845111       -1.5221439191
 C         -4.7940559529       -0.6328591096       -1.6991192714
 C         -5.6600443998       -0.1605425405       -0.6901099805
 C         -7.0617232696       -0.1548729544       -0.8421054311
 H         -8.9432945254        0.3158968032        0.0322930051
 H         -7.9677125891        1.1638623537        2.1279477844
 H         -5.5252953849        1.1758908607        2.4461898240
 H         -3.2706529885        0.6939048820        1.5937116134
 H         -2.4594403364       -2.6028885350       -0.1695791972
 H         -1.2206707297       -4.7142916575       -0.0685564840
 H          1.2431633248       -4.7076958992        0.0740543235
 H          2.4700007068       -2.5881589589        0.1764439859
 H          2.7637953895       -0.9107062741        2.3249306836
 H          5.2029896740       -0.9160075865        2.6654698441
 H          7.4707802957       -0.4638617529        1.8134227542
 H          8.9430226977        0.3184509789        0.0005032076
 H          7.9835889615        1.0941480996       -2.1302852756
 H          5.5435491842        1.0961500521       -2.4665809922
 H          3.2818248002        0.6494668509       -1.6137213656
 H          2.4381496355        2.3412435252        0.3531521144
 H          1.2113862632        4.4538615737        0.1650144376
 H         -1.2229806608        4.4476758418       -0.2440130801
 H         -2.4451747883        2.3305041465       -0.3979181554
 H         -2.7810726675       -0.9820538237       -2.3001609908
 H         -5.2229225324       -1.0023209515       -2.6200539216
 H         -7.4848128232       -0.5278163930       -1.7642173762
