  145
       -197.80290656
 C         -3.1674190662       -6.6234260891       -2.1071107717
 C         -3.4073482337       -5.7489479993       -0.8680263034
 C         -4.5955184840       -4.8095189297       -1.1197633064
 C         -3.7642431757       -6.6655690570        0.3046990887
 C         -2.1627405830       -4.9199087795       -0.6060385768
 C         -1.7184170416       -4.0279661090       -1.5837937897
 C         -0.6030113520       -3.2453449138       -1.3903649100
 C          0.1133035866       -3.3139649858       -0.1956975144
 N          1.2082953568       -2.4421888317        0.0038186895
 C          2.4850969034       -2.9444607139        0.1719854783
 C          2.6812848781       -4.3278781648        0.1935160657
 C          3.9247587757       -4.8678258139        0.4576501476
 C          5.0181282204       -4.0416370642        0.7388206679
 C          6.3520275202       -4.6723339766        1.0980230655
 C          7.4383823405       -3.6349523330        1.3916074832
 C          6.8279745389       -5.5400557227       -0.0760993642
 C          6.1728222385       -5.5460830604        2.3475747442
 C          4.8296797696       -2.6740392018        0.6417185023
 C          3.6087373301       -2.0739007939        0.2921113857
 B          3.4114240848       -0.5753193540        0.0098976712
 C          4.4315311369        0.5531800377       -0.2234398430
 C          5.8097870247        0.3696827092       -0.4153497912
 C          6.7209876853        1.4078390347       -0.5191715376
 C          8.2115053351        1.1867845261       -0.7101691527
 C          8.5880104162       -0.2956785821       -0.7687411326
 C          8.9711445685        1.8217839813        0.4634957840
 C          8.6470591696        1.8469194253       -2.0261159099
 C          6.2303092699        2.7128256337       -0.4235505393
 C          4.8744175708        2.9512448486       -0.3045876074
 C          3.9593980128        1.8966927633       -0.2546218314
 N          2.6069267051        2.1806761067       -0.2160276710
 C          2.1705193283        3.5267099985       -0.1437326770
 C          2.2669292508        4.3864436315       -1.2317421368
 C          1.7738689705        5.6757977622       -1.1484004497
 C          1.1705083343        6.1484464612        0.0121071032
 C          0.5909722369        7.5467253244        0.1360171476
 C         -0.9016176938        7.4356479454        0.4793385170
 C          1.3276499589        8.2968903480        1.2546554517
 C          0.7259304431        8.3576266430       -1.1552353027
 C          1.0974705694        5.2793241174        1.1013451611
 C          1.5846329852        3.9922664544        1.0305646050
 C          1.6107068204        1.2172118372       -0.2095532602
 C          0.2809256640        1.6085491136       -0.3877826687
 C         -0.7364985957        0.6726392607       -0.2170169301
 N         -2.1111254608        0.9791016682       -0.3251345249
 C         -2.7661259771        1.8660872953        0.5145866692
 C         -2.0784754750        2.8627127697        1.2090500000
 C         -2.7635670779        3.7975323695        1.9583860663
 C         -4.1450991292        3.7630891820        2.0265978851
 C         -4.8293538203        2.7394615432        1.3931639868
 C         -4.1592294048        1.7763308352        0.6574791601
 C         -4.8661490656        0.5330049737        0.1445918981
 C         -4.6365611295       -0.5224891793        1.2278552251
 C         -5.0594749272       -0.2627664001        2.5278000804
 C         -4.8362748191       -1.1747590359        3.5417197559
 C         -4.1700255527       -2.3603495848        3.2772244947
 C         -3.7427840464       -2.6256815881        1.9892558472
 C         -3.9792749822       -1.7172813718        0.9703956111
 C         -6.3375274197        0.7937039526       -0.1081701602
 C         -7.3434964708       -0.0225727756        0.3880704206
 C         -8.6717819526        0.2451485664        0.0991868375
 C         -9.0109323837        1.3259211643       -0.6945420107
 C         -8.0112255736        2.1359213602       -1.2088923096
 C         -6.6867735748        1.8685032252       -0.9211335765
 C         -4.2103603516        0.0938113306       -1.1451270251
 C         -4.9087397181       -0.5854690994       -2.1293759524
 C         -4.2648494031       -1.0668034290       -3.2569028609
 C         -2.9035089167       -0.8571671610       -3.4087601544
 C         -2.1944600879       -0.1754420392       -2.4417398755
 C         -2.8339264717        0.2956728312       -1.2922650897
 C         -0.4093261234       -0.6681387984        0.0088063957
 C          0.9175181192       -1.0847204579       -0.0299054272
 C          1.9663516396       -0.1419509657       -0.0759830158
 C         -0.3123316448       -4.2054141612        0.7839737526
 C         -1.4267864735       -4.9973942318        0.5720364013
 H         -2.9864430724       -6.0153202489       -2.9885644688
 H         -4.0359482769       -7.2499852392       -2.2971020130
 H         -2.3042708166       -7.2676624327       -1.9528885861
 H         -5.4839712674       -5.3903017345       -1.3577103388
 H         -4.7988996392       -4.2154156674       -0.2327777661
 H         -4.3978803286       -4.1326178048       -1.9454290491
 H         -2.9654430095       -7.3759090150        0.5041796216
 H         -4.6623003772       -7.2294873394        0.0622514057
 H         -3.9647760819       -6.0887101376        1.2042284616
 H         -2.2539933517       -3.9349398271       -2.5148927669
 H         -0.2798741262       -2.5596707096       -2.1584732351
 H          1.8577982781       -4.9964949917       -0.0011973169
 H          4.0283190333       -5.9415863213        0.4581990279
 H          8.3603431747       -4.1423152838        1.6694462371
 H          7.6395447781       -3.0303254241        0.5117041105
 H          7.1475590523       -2.9873063204        2.2151049061
 H          6.9389761020       -4.9309725917       -0.9709222064
 H          6.1202853582       -6.3353988734       -0.2915390528
 H          7.7900159163       -5.9920220193        0.1565700094
 H          5.8335007389       -4.9383408810        3.1839063241
 H          5.4419242553       -6.3314807356        2.1781547245
 H          7.1180763727       -6.0116653217        2.6191161646
 H          5.6478011274       -2.0110007689        0.8494530540
 H          6.1524408588       -0.6441544361       -0.4955306638
 H          8.0857626987       -0.7949915658       -1.5937537140
 H          8.3318447048       -0.7929434999        0.1629585577
 H          9.6616037468       -0.3927214163       -0.9186486101
 H          8.7929368760        2.8917102839        0.5184327711
 H         10.0409996747        1.6597597261        0.3492664441
 H          8.6516443886        1.3742232977        1.4024463246
 H          8.1073555990        1.4069001632       -2.8622994077
 H          9.7132197624        1.6995922470       -2.1861153953
 H          8.4470987104        2.9146641814       -2.0156119429
 H          6.8984788272        3.5591825252       -0.4565592443
 H          4.5306190684        3.9724003048       -0.2509928192
 H          2.7194198504        4.0342692727       -2.1472472019
 H          1.8604830343        6.3071197758       -2.0168606633
 H         -1.0530015564        6.9365148134        1.4315881179
 H         -1.4242567370        6.8677768391       -0.2875649839
 H         -1.3464627037        8.4262761702        0.5398120053
 H          1.2117554786        7.7946602788        2.2109079828
 H          2.3901587374        8.3596235011        1.0290415211
 H          0.9347964580        9.3066371894        1.3499178579
 H          1.7703673400        8.4897433269       -1.4276241543
 H          0.2901203540        9.3438586725       -1.0106311306
 H          0.1999589785        7.8751608794       -1.9757531217
 H          0.6496696437        5.6087312662        2.0254351893
 H          1.5162374647        3.3309790290        1.8824990329
 H          0.0351961043        2.6213163427       -0.6604398208
 H         -1.0041601393        2.9016437981        1.1725750605
 H         -2.2123539602        4.5619229146        2.4859303137
 H         -4.6855041342        4.5065853361        2.5923211194
 H         -5.9037826084        2.6848201155        1.4835497078
 H         -5.5683975451        0.6629634559        2.7463424779
 H         -5.1779612306       -0.9576486580        4.5433594463
 H         -3.9856916836       -3.0698268498        4.0706473639
 H         -3.2137997716       -3.5403475489        1.7680447460
 H         -3.6478785009       -1.9563192033       -0.0280994549
 H         -7.0934033144       -0.8749526520        1.0012105730
 H         -9.4438393117       -0.3979809592        0.4961153398
 H        -10.0469609479        1.5340678292       -0.9164502743
 H         -8.2656026970        2.9770363532       -1.8371522980
 H         -5.9077358769        2.4982374255       -1.3260325336
 H         -5.9663540087       -0.7586379444       -2.0029706470
 H         -4.8223482021       -1.6041607892       -4.0092309154
 H         -2.3928011826       -1.2212283204       -4.2885199626
 H         -1.1377443585        0.0011097485       -2.5674963635
 H         -1.2137363328       -1.3653553204        0.1762200048
 H          0.2235293017       -4.2626811890        1.7199740553
 H         -1.7192643964       -5.6767510492        1.3559082414
