  59
        -74.49812745
 C          7.6065686084       -1.1923733351       -0.8999878744
 C          6.3106371538       -1.3230366994       -1.6905404762
 C          5.0821285216       -1.1598972836       -0.7987714241
 C          3.7799139264       -1.2745534345       -1.5866074013
 C          2.5542893096       -1.1141845732       -0.6909619483
 C          1.2574410152       -1.2163563267       -1.4904826335
 C         -0.0015766352       -1.0891780100       -0.6136525530
 C         -1.2583776587       -1.1964792354       -1.4970505505
 C         -2.5570616453       -1.0971389660       -0.7002180380
 C         -3.7820515974       -1.2125668180       -1.6032393079
 C         -5.0830574829       -1.1429291906       -0.8078938338
 C         -6.3136081675       -1.2386035323       -1.7072580898
 C         -7.6066449227       -1.1964721260       -0.9021905954
 C         -0.0117922822       -2.1209594132        0.4895685738
 C         -0.0146101263       -3.4956140016        0.3869447628
 C         -0.0212344867       -4.2532457360        1.5505778479
 C         -0.0254550913       -3.6434955345        2.7957517707
 C         -0.0237740394       -2.2625699528        2.9083080060
 C         -0.0170027282       -1.5043076054        1.7494898631
 C         -0.0109876278       -0.0638869677        1.5556959526
 C         -0.0174606139        0.9762141909        2.4704427085
 C         -0.0087043821        2.2801223308        2.0030103105
 C          0.0074496999        2.5196569087        0.6385573101
 Br         0.0227045382        4.3259007818        0.0172323333
 C          0.0126229131        1.4915160133       -0.2940761904
 C          0.0022052272        0.1970035820        0.1764644170
 H          8.4680411281       -1.3093414696       -1.5535273245
 H          7.6660448642       -0.2153042624       -0.4250639908
 H          7.6584843935       -1.9529382663       -0.1235712614
 H          6.2875481759       -0.5652170298       -2.4770806905
 H          6.2774039277       -2.3021190958       -2.1741576107
 H          5.1207736425       -0.1848589298       -0.3073102029
 H          5.0989583425       -1.9233810912       -0.0172906662
 H          3.7416549555       -2.2484489931       -2.0806718395
 H          3.7618375142       -0.5086077816       -2.3656373712
 H          2.5977265724       -0.1449903402       -0.1885518527
 H          2.5668061635       -1.8863833555        0.0817545981
 H          1.2278878605       -2.1791481015       -2.0053208646
 H          1.2391671588       -0.4324157792       -2.2509045235
 H         -1.2318531968       -0.4012150998       -2.2453149280
 H         -1.2333652342       -2.1515804588       -2.0261474967
 H         -2.5839451899       -1.8909468064        0.0495128405
 H         -2.5879117879       -0.1426383481       -0.1700853526
 H         -3.7658974386       -0.4073806468       -2.3413966303
 H         -3.7425294323       -2.1595228197       -2.1467553948
 H         -5.1034886787       -1.9579839864       -0.0797944712
 H         -5.1154857241       -0.2028926076       -0.2511206784
 H         -6.2717733232       -2.1698904936       -2.2783389510
 H         -6.3033451023       -0.4117221095       -2.4220890837
 H         -7.6446076708       -2.0256261020       -0.1973576606
 H         -8.4702229609       -1.2646400860       -1.5605471809
 H         -7.6752806544       -0.2665057395       -0.3399171010
 H         -0.0115938222       -3.9808186238       -0.5781608736
 H         -0.0237538489       -5.3314654383        1.4852561137
 H         -0.0306948927       -4.2531614151        3.6874279582
 H         -0.0270451052       -1.7897777105        3.8790807615
 H         -0.0298315885        0.7829574459        3.5321238189
 H         -0.0135865158        3.1093213885        2.6938427317
 H          0.0239583377        1.7119366662       -1.3505736490
