  94
  -157.117346399400       0.246743268273333      !
 C          9.5972699307        2.0487050339       -0.7547745604
 C          9.7015619075        2.9815729396        0.2669256416
 N          8.7507837431        3.1755268881        1.1658134323
 C          7.6568013332        2.4432794102        1.0865749432
 C          7.4400443188        1.4675424962        0.1114250046
 C          6.1922178039        0.6969880515        0.0780764020
 C          4.9828229819        1.3750019557        0.1682687571
 C          3.7620712490        0.7106869760        0.0849290051
 N          2.5957949790        1.3521304244        0.1720300896
 C          1.4457079050        0.6991173137        0.0772192181
 C          0.2024425097        1.3988014726        0.1508952074
 C          0.2144482076        2.7950389224        0.3065736841
 C         -0.9495001752        3.5108076401        0.3617571365
 C         -2.1752821993        2.8373092612        0.2455664852
 N         -3.3833863912        3.5765756391        0.2855276337
 C         -3.6729446921        4.4934746175       -0.7197418166
 C         -2.8634340511        4.6414261322       -1.8413605121
 C         -3.1793813512        5.5661107823       -2.8227497580
 C         -4.3113547333        6.3510995681       -2.7071995259
 C         -5.1432293792        6.1980159850       -1.6089907833
 C         -4.8346223905        5.2751968524       -0.6257736503
 O         -5.7112348351        5.1578364204        0.4205047433
 C         -5.4178877037        4.2421546395        1.3963567642
 C         -6.3105630637        4.1347021819        2.4477219080
 C         -6.0661531471        3.2457237573        3.4827234072
 C         -4.9182281827        2.4760035367        3.4655029774
 C         -4.0204053333        2.5776672033        2.4157695015
 C         -4.2606854656        3.4482739025        1.3578415495
 C         -2.2091076391        1.4683392967        0.0931524944
 C         -1.0317048040        0.7084089978        0.0558659351
 C         -1.0303750887       -0.7248618168       -0.0880225694
 C         -2.2065725200       -1.4866673156       -0.1183533949
 C         -2.1721651946       -2.8554324000       -0.2729378755
 N         -3.3806259199       -3.5948102063       -0.2992262978
 C         -4.2813184073       -3.4482660776       -1.3494101090
 C         -4.0473698169       -2.5856812147       -2.4153037794
 C         -4.9681080217       -2.4657552764       -3.4429603622
 C         -6.1338040223       -3.2083642909       -3.4296496732
 C         -6.3727961511       -4.0894696495       -2.3867845907
 C         -5.4566013123       -4.2159768597       -1.3580598287
 O         -5.7458884575       -5.1238100280       -0.3735165143
 C         -4.8447638499       -5.2616810806        0.6491386399
 C         -5.1488663107       -6.1782879122        1.6395599771
 C         -4.2923547431       -6.3521513332        2.7155170222
 C         -3.1400276088       -5.5935760041        2.8016282516
 C         -2.8291359117       -4.6743566371        1.8133758000
 C         -3.6638583235       -4.5060231613        0.7133595650
 C         -0.9462781633       -3.5263161379       -0.4016795427
 C          0.2171204416       -2.8088958233       -0.3509569827
 C          0.2046119602       -1.4133179605       -0.1895545976
 C          1.4472455549       -0.7123373227       -0.1143276031
 N          2.5991910761       -1.3630786931       -0.2050206326
 C          3.7640172474       -0.7194968140       -0.1105834649
 C          4.9870253247       -1.3810453932       -0.1846244653
 C          6.1942884570       -0.7003987082       -0.0839974430
 C          7.4449523924       -1.4666814951       -0.1064185598
 C          8.4448411797       -1.2769701009        0.8478140843
 C          9.5987326500       -2.0356488647        0.7765752403
 C          9.7160826456       -2.9679576314       -0.2442479085
 N          8.7729708364       -3.1679475974       -1.1498241237
 C          7.6742537456       -2.4418573123       -1.0791146385
 C          8.4482182123        1.2834788286       -0.8350302450
 H         10.3929076497        1.9293616066       -1.4739573106
 H         10.5789252968        3.6057028032        0.3724538448
 H          6.9129666562        2.6276870086        1.8514144209
 H          4.9711597326        2.4485879550        0.2768737161
 H          1.1742759400        3.2812870825        0.3857106752
 H         -0.9421118302        4.5825258937        0.4909208119
 H         -1.9841137636        4.0254969262       -1.9450374910
 H         -2.5326296968        5.6658082818       -3.6805937237
 H         -4.5565234120        7.0749688365       -3.4678914347
 H         -6.0409180769        6.7843308572       -1.4962165220
 H         -7.1880755053        4.7609739941        2.4384553191
 H         -6.7674370643        3.1668530929        4.2980243063
 H         -4.7095562901        1.7908537708        4.2724708239
 H         -3.1202837116        1.9834721607        2.4194659508
 H         -3.1726074312        0.9931131359       -0.0061064771
 H         -3.1699999794       -1.0130810967       -0.0111778593
 H         -3.1343076429       -2.0121233730       -2.4426261565
 H         -4.7634964739       -1.7875278604       -4.2567274444
 H         -6.8534977017       -3.1144490454       -4.2270452333
 H         -7.2643831459       -4.6948051378       -2.3535650579
 H         -6.0632376749       -6.7426151629        1.5502999563
 H         -4.5345135274       -7.0706507053        3.4821092089
 H         -2.4733475838       -5.7091062350        3.6419215846
 H         -1.9337725125       -4.0787062423        1.8957076442
 H         -0.9377784564       -4.5973723615       -0.5359954198
 H          1.1769790188       -3.2937760436       -0.4378905582
 H          4.9785723965       -2.4546295249       -0.2936147554
 H          8.3084483169       -0.5538386768        1.6390242887
 H         10.3882183758       -1.9116538029        1.5017048065
 H         10.5978692164       -3.5869325349       -0.3430775888
 H          6.9372464945       -2.6308564180       -1.8495392744
 H          8.3218757219        0.5598689200       -1.6275414842
  94
  -157.117263910700       0.226118518408797      !
 C          9.6116422496        2.0660425639       -0.5468048383
 C          9.7070040566        2.9597046606        0.5102643167
 N          8.7474768330        3.1220415604        1.4060523755
 C          7.6530195171        2.3957092396        1.2879977081
 C          7.4449198729        1.4575593692        0.2749753093
 C          6.1967542046        0.6899539134        0.2024401394
 C          4.9871150739        1.3666305192        0.2961195160
 C          3.7668508099        0.7055122710        0.1836396497
 N          2.6004815510        1.3475987238        0.2621394448
 C          1.4507045435        0.6960672827        0.1519813650
 C          0.2072128899        1.3924009600        0.2473706240
 C          0.2171084714        2.7848293217        0.4350015751
 C         -0.9476447365        3.4972852230        0.5136323473
 C         -2.1735497620        2.8197309692        0.4242068666
 N         -3.3850344766        3.5492562427        0.4952534660
 C         -4.2344605510        3.6222362031       -0.6051593240
 C         -3.9529955121        2.9837427323       -1.8089128690
 C         -4.8252300143        3.0771428407       -2.8805400176
 C         -5.9882695376        3.8166132407       -2.7755669507
 C         -6.2727211862        4.4799788123       -1.5924419537
 C         -5.4059936856        4.3907638297       -0.5176773111
 O         -5.7398436608        5.0923353084        0.6104969860
 C         -4.8926319661        5.0112988472        1.6840094650
 C         -5.2454809461        5.7143948558        2.8218127275
 C         -4.4463251008        5.6567821849        3.9529850319
 C         -3.3032692777        4.8797033890        3.9437828398
 C         -2.9437333657        4.1736603123        2.8077938108
 C         -3.7187974765        4.2427357103        1.6547199948
 C         -2.2046827877        1.4521704835        0.2564893099
 C         -1.0262880221        0.7013773542        0.1494428438
 C         -1.0240424453       -0.7230366929       -0.0647009649
 C         -2.2008061724       -1.4747668118       -0.1831318848
 C         -2.1667201437       -2.8314406122       -0.4223460296
 N         -3.3766551912       -3.5527771810       -0.5685758306
 C         -4.2229183481       -3.3075126170       -1.6462199057
 C         -3.9411202220       -2.3470807774       -2.6125240286
 C         -4.8106229196       -2.1288122029       -3.6681623778
 C         -5.9711934983       -2.8701678030       -3.7849855560
 C         -6.2556890040       -3.8486762915       -2.8455162765
 C         -5.3915061830       -4.0723811990       -1.7885863103
 O         -5.7242602079       -5.0722357025       -0.9133213539
 C         -4.8837863008       -5.2970726709        0.1449372002
 C         -5.2392285075       -6.2960934143        1.0331863985
 C         -4.4472664974       -6.5592152201        2.1400746972
 C         -3.3087529461       -5.8070755975        2.3606207851
 C         -2.9459794387       -4.8064527361        1.4743585360
 C         -3.7137954784       -4.5479171248        0.3435906371
 C         -0.9392593367       -3.5028948651       -0.5336008669
 C          0.2240278476       -2.7956264615       -0.4024785008
 C          0.2113725440       -1.4090989288       -0.1751580133
 C          1.4533027227       -0.7118985045       -0.0637360672
 N          2.6058220471       -1.3611349498       -0.1590684169
 C          3.7699671206       -0.7203941885       -0.0412917231
 C          4.9935011198       -1.3797281149       -0.1260773700
 C          6.2000197343       -0.7023700756        0.0018661413
 C          7.4512753673       -1.4670785548       -0.0340355150
 C          8.4451506560       -1.3052264658        0.9314560869
 C          9.6010646571       -2.0590686497        0.8431407793
 C          9.7262286637       -2.9589281471       -0.2055129735
 N          8.7883925266       -3.1330352298       -1.1218469154
 C          7.6877519823       -2.4117794670       -1.0348078483
 C          8.4622793067        1.3065272762       -0.6673470953
 H         10.4144291951        1.9724992825       -1.2618233653
 H         10.5846272552        3.5771443859        0.6481167179
 H          6.9014402514        2.5523580399        2.0516065985
 H          4.9748091037        2.4367336258        0.4347739757
 H          1.1768624018        3.2734584853        0.4994380901
 H         -0.9399391349        4.5696849207        0.6368069708
 H         -3.0401693782        2.4182356101       -1.9093014849
 H         -4.5841756607        2.5688634135       -3.8012830906
 H         -6.6696645131        3.8890012279       -3.6081356790
 H         -7.1620471027        5.0793692059       -1.4816761699
 H         -6.1518415842        6.2979309826        2.8018448209
 H         -4.7258279696        6.2105270056        4.8349875134
 H         -2.6821774230        4.8140610540        4.8235150166
 H         -2.0572241731        3.5595489054        2.8148436459
 H         -3.1689822173        0.9713566742        0.2042837669
 H         -3.1659670046       -1.0013976245       -0.0927953900
 H         -3.0302715245       -1.7741282512       -2.5415401896
 H         -4.5696399449       -1.3749419039       -4.4014926295
 H         -6.6511423399       -2.7000097483       -4.6043746661
 H         -7.1433758684       -4.4564848295       -2.9163246963
 H         -6.1419986535       -6.8533927376        0.8412865170
 H         -4.7293284121       -7.3416051034        2.8264001613
 H         -2.6935574275       -5.9912922734        3.2275909920
 H         -2.0625094661       -4.2167724277        1.6613814204
 H         -0.9293537514       -4.5649655742       -0.7265078651
 H          1.1846981595       -3.2799426682       -0.4839262101
 H          4.9859048623       -2.4499965351       -0.2640161035
 H          8.3027641652       -0.6076076998        1.7442157600
 H         10.3864869973       -1.9558708663        1.5759506839
 H         10.6104391911       -3.5719115474       -0.3189893949
 H          6.9551288754       -2.5780514974       -1.8145843957
 H          8.3427885520        0.6131285281       -1.4874000991
  94
  -157.116866314700       0.148461437347430      !
 C          9.6034385619        1.7526199826        1.2580124013
 C          9.7070020391        2.9258183060        0.5246830332
 N          8.7525004436        3.3578318367       -0.2822708612
 C          7.6570124289        2.6333159166       -0.3992800816
 C          7.4408023931        1.4313730221        0.2774963895
 C          6.1909962453        0.6830889775        0.1065074229
 C          4.9828818147        1.3639444511        0.1927969068
 C          3.7601046182        0.7042228236        0.0998936908
 N          2.5950045614        1.3480472418        0.1869064670
 C          1.4436720524        0.6959487743        0.0978878291
 C          0.2011376271        1.3973249131        0.1686724476
 C          0.2146635485        2.7950770050        0.3109264281
 C         -0.9485579855        3.5127404884        0.3563459480
 C         -2.1748315769        2.8390830876        0.2470320643
 N         -3.3824874207        3.5807572497        0.2702584187
 C         -3.6776931589        4.4612362544       -0.7651578038
 C         -2.8686352423        4.5765739602       -1.8908722895
 C         -3.1912388809        5.4645229675       -2.9035197137
 C         -4.3291838335        6.2444502642       -2.8147633032
 C         -5.1594378692        6.1243607587       -1.7110893600
 C         -4.8441614391        5.2385295109       -0.6964666960
 O         -5.7182068009        5.1524811057        0.3550508653
 C         -5.4157930613        4.2760310107        1.3637871230
 C         -6.3024503187        4.2033751041        2.4230943579
 C         -6.0484296103        3.3538219027        3.4886453027
 C         -4.8979690322        2.5875891379        3.4930381917
 C         -4.0059574214        2.6544917278        2.4355733413
 C         -4.2548726362        3.4866706688        1.3490839510
 C         -2.2106638336        1.4685783163        0.1124786423
 C         -1.0339262717        0.7072416491        0.0812622372
 C         -1.0345447159       -0.7268068945       -0.0533506114
 C         -2.2114340475       -1.4877965374       -0.0793475306
 C         -2.1780255593       -2.8570304823       -0.2299399246
 N         -3.3866702599       -3.5960329261       -0.2537203633
 C         -4.2894798391       -3.4506848284       -1.3021720939
 C         -4.0619220391       -2.5836151620       -2.3658999867
 C         -4.9859978940       -2.4641047606       -3.3908193865
 C         -6.1484887464       -3.2115955702       -3.3769107833
 C         -6.3806494401       -4.0979658810       -2.3367069502
 C         -5.4611662538       -4.2242086407       -1.3108754601
 O         -5.7428500834       -5.1379046210       -0.3301101906
 C         -4.8407697284       -5.2731272202        0.6919646995
 C         -5.1388539496       -6.1937786651        1.6804055997
 C         -4.2811554899       -6.3642622485        2.7559951962
 C         -3.1342562976       -5.5978783433        2.8442253279
 C         -2.8292732340       -4.6747840214        1.8578388353
 C         -3.6644466701       -4.5104993971        0.7575039517
 C         -0.9528524575       -3.5295885960       -0.3577241341
 C          0.2110055140       -2.8129682961       -0.3100367198
 C          0.1995653403       -1.4167985142       -0.1536767692
 C          1.4429292546       -0.7164723872       -0.0847276016
 N          2.5933647009       -1.3702468412       -0.1732389760
 C          3.7590932559       -0.7264623869       -0.0888654326
 C          4.9805045629       -1.3877641004       -0.1841542138
 C          6.1898627211       -0.7087696435       -0.0984051063
 C          7.4363477592       -1.4606642471       -0.2777087060
 C          7.6635727180       -2.6634582409        0.3893059255
 C          8.8510672120       -3.3415667941        0.1779706156
 C          9.7747848966       -2.7957616496       -0.7002862292
 N          9.5644443150       -1.6675019132       -1.3595160943
 C          8.4321676977       -1.0248845230       -1.1566988357
 C          8.4515934317        0.9978428877        1.1353817802
 H         10.4022210151        1.4421952037        1.9137064686
 H         10.5867533633        3.5522847384        0.5863179014
 H          6.9113973850        3.0186664013       -1.0832263980
 H          4.9736243915        2.4295164090        0.3628782000
 H          1.1751669217        3.2809283340        0.3847207078
 H         -0.9404636864        4.5860789205        0.4713814472
 H         -1.9846653842        3.9640425635       -1.9727647849
 H         -2.5457341716        5.5387995525       -3.7648089052
 H         -4.5800951524        6.9388839548       -3.6005907610
 H         -6.0613283019        6.7078397965       -1.6188052771
 H         -7.1830802189        4.8247733367        2.3957925486
 H         -6.7446420320        3.3025253416        4.3104595932
 H         -4.6826275708        1.9329623626        4.3232816216
 H         -3.1036509891        2.0637756203        2.4542704912
 H         -3.1749442859        0.9934262389        0.0204574825
 H         -3.1745236117       -1.0133990901        0.0274905609
 H         -3.1512910394       -2.0063174568       -2.3939472655
 H         -4.7864035949       -1.7824309843       -4.2030167800
 H         -6.8708164651       -3.1176300218       -4.1719722166
 H         -7.2692994836       -4.7075400604       -2.3037074986
 H         -6.0490272773       -6.7645122015        1.5897732244
 H         -4.5177938294       -7.0869759882        3.5205028004
 H         -2.4669406567       -5.7110998565        3.6844572641
 H         -1.9383181822       -4.0728310405        1.9417211074
 H         -0.9458565781       -4.6010810827       -0.4888363253
 H          1.1707251333       -3.2983481133       -0.3962664361
 H          4.9673391717       -2.4528869197       -0.3582734855
 H          6.9231418687       -3.0459091378        1.0780376786
 H          9.0575291888       -4.2707945370        0.6866373175
 H         10.7229530065       -3.2795428207       -0.8934610694
 H          8.2987786346       -0.1188005043       -1.7330637596
 H          8.3247182849        0.0898842451        1.7072603631
  94
  -157.116814486300       0.140538391118862      !
 C          8.8726613378        3.2993866177       -0.2749608374
 C          9.8007069919        2.7493378375        0.5962060786
 N          9.5878415567        1.6260606056        1.2625356039
 C          8.4490806550        0.9915891446        1.0711888326
 C          7.4470920796        1.4334981556        0.2031828256
 C          6.1925086418        0.6906306147        0.0438112852
 C          4.9869777003        1.3731246256        0.1507782513
 C          3.7623576177        0.7148542697        0.0739902730
 N          2.5989755941        1.3607542262        0.1779028501
 C          1.4458153006        0.7107827749        0.0988669798
 C          0.2045930542        1.4134831165        0.1853323045
 C          0.2186035527        2.8065318132        0.3669637477
 C         -0.9438419426        3.5239297027        0.4371538248
 C         -2.1716661577        2.8568674015        0.3030104015
 N         -3.3792847309        3.5951470188        0.3483004547
 C         -3.6548866958        4.5442384317       -0.6319619022
 C         -2.8110950475        4.7555722828       -1.7174808231
 C         -3.1120223629        5.7147779988       -2.6701045365
 C         -4.2635487021        6.4715418823       -2.5630578459
 C         -5.1313321440        6.2525382090       -1.5046972702
 C         -4.8377888671        5.2949447089       -0.5506784760
 O         -5.7531662348        5.1107167487        0.4519631900
 C         -5.4779733240        4.1577996591        1.3966488983
 C         -6.4148288397        3.9770430541        2.3982821138
 C         -6.1919413806        3.0490730448        3.4032845636
 C         -5.0195842780        2.3172293459        3.4086351015
 C         -4.0780801336        2.4918973857        2.4080861723
 C         -4.2976951011        3.3979717235        1.3755847880
 C         -2.2069233327        1.4908892068        0.1251070331
 C         -1.0318046031        0.7282972322        0.0801008108
 C         -1.0366700005       -0.7034472317       -0.0729832361
 C         -2.2162632428       -1.4602719490       -0.1209243399
 C         -2.1812011177       -2.8291008536       -0.2569532211
 N         -3.3978001187       -3.5663876030       -0.2799224939
 C         -4.0617443479       -3.7919298630       -1.4766697768
 C         -3.6016013109       -3.2734769857       -2.6818932663
 C         -4.2890513687       -3.5176470922       -3.8593271832
 C         -5.4412334352       -4.2816127321       -3.8510181382
 C         -5.9120400543       -4.8068850949       -2.6568385002
 C         -5.2323694566       -4.5669026644       -1.4767451366
 O         -5.7455765642       -5.1138231190       -0.3290702092
 C         -5.0664143051       -4.8931067200        0.8411202700
 C         -5.5809450095       -5.4576736866        1.9938925081
 C         -4.9393547447       -5.2680720669        3.2087980274
 C         -3.7834486455       -4.5118885083        3.2651777602
 C         -3.2613785386       -3.9431687405        2.1152535838
 C         -3.8917204402       -4.1261440988        0.8894976758
 C         -0.9600664202       -3.5100044113       -0.3595312428
 C          0.2058235494       -2.7954884820       -0.3108473280
 C          0.1957749079       -1.3986765041       -0.1614982661
 C          1.4408761344       -0.7009956533       -0.0889572030
 N          2.5893094572       -1.3573187793       -0.1846723673
 C          3.7570698969       -0.7156395477       -0.1151049051
 C          4.9762568041       -1.3792746683       -0.2262257980
 C          6.1868324966       -0.7010613899       -0.1595800977
 C          7.4320023183       -1.4486701304       -0.3649368806
 C          7.6820409745       -2.6480160871        0.2992906268
 C          8.8666986595       -3.3207527316        0.0581073778
 C          9.7627692827       -2.7748498163       -0.8483550312
 N          9.5292343971       -1.6507977185       -1.5063209577
 C          8.4014830928       -1.0114062414       -1.2712960034
 C          7.6765610946        2.6319525833       -0.4701262868
 H          9.0828953801        4.2237952050       -0.7906566714
 H         10.7550431248        3.2256581605        0.7766453062
 H          8.3137501220        0.0891910937        1.6529702722
 H          4.9803969570        2.4383005472        0.3248458679
 H          1.1793060864        3.2894368094        0.4565435983
 H         -0.9331207580        4.5922493343        0.5917478705
 H         -1.9164040148        4.1618757473       -1.8176559400
 H         -2.4376736967        5.8633735909       -3.4990771148
 H         -4.4970647780        7.2223462852       -3.3009075957
 H         -6.0470221061        6.8122499911       -1.4019088819
 H         -7.3100588850        4.5773183329        2.3740149786
 H         -6.9284790308        2.9113188400        4.1786449348
 H         -4.8264200982        1.6038657304        4.1947677174
 H         -3.1601432327        1.9261191986        2.4313332786
 H         -3.1708042837        1.0192388899        0.0139388561
 H         -3.1811363541       -0.9841957717       -0.0415440859
 H         -2.7004796395       -2.6799759591       -2.6898416629
 H         -3.9152327281       -3.1066180397       -4.7842144950
 H         -5.9769059540       -4.4738803121       -4.7669506850
 H         -6.8065037041       -5.4077206136       -2.6204361209
 H         -6.4838525845       -6.0421705155        1.9199144994
 H         -5.3468138727       -5.7120588302        4.1030475502
 H         -3.2784239534       -4.3585784315        4.2062173549
 H         -2.3592924195       -3.3529935978        2.1610038731
 H         -0.9574588375       -4.5837503097       -0.4694597911
 H          1.1653704367       -3.2838543334       -0.3806136936
 H          4.9599105931       -2.4443151727       -0.4005614128
 H          6.9619690854       -3.0314284073        1.0086248554
 H          9.0925172624       -4.2462614672        0.5651506645
 H         10.7070007794       -3.2557934672       -1.0659676471
 H          8.2480028815       -0.1080753542       -1.8470972231
 H          6.9319477814        3.0178829210       -1.1522505460
  94
  -157.116751131000       0.131425275927104      !
 C          9.5783791469        1.7788379607        1.2929087041
 C          9.6876956080        2.9416013851        0.5441929152
 N          8.7439423460        3.3570930018       -0.2837248911
 C          7.6530242114        2.6265537976       -0.4054667835
 C          7.4306042316        1.4353825433        0.2880049437
 C          6.1829353725        0.6837037731        0.1156214148
 C          4.9743666480        1.3657411862        0.1832452402
 C          3.7524799906        0.7041621317        0.0927758053
 N          2.5869194911        1.3493650872        0.1645232202
 C          1.4362940632        0.6952359100        0.0833466365
 C          0.1932609193        1.3968107780        0.1504359806
 C          0.2091440346        2.7961402345        0.2738223479
 C         -0.9537261993        3.5144277302        0.3265501081
 C         -2.1791988087        2.8360966974        0.2555100128
 N         -3.3897719931        3.5781249512        0.3044626244
 C         -3.7903166351        4.3275398140       -0.7939185140
 C         -3.0913942145        4.3032982986       -1.9959754464
 C         -3.5219012353        5.0571184256       -3.0752067585
 C         -4.6564259020        5.8406114871       -2.9735421671
 C         -5.3713873977        5.8661917449       -1.7856334243
 C         -4.9481398817        5.1158433684       -0.7036338145
 O         -5.7033805032        5.1747387513        0.4385913020
 C         -5.2856682824        4.4389710603        1.5168462184
 C         -6.0429163402        4.5191269282        2.6714105041
 C         -5.6678540149        3.8088697586        3.8017003631
 C         -4.5300381422        3.0242298366        3.7725857865
 C         -3.7660711803        2.9391044964        2.6204086586
 C         -4.1339315918        3.6372508496        1.4753939559
 C         -2.2188431136        1.4651725301        0.1364430255
 C         -1.0419867531        0.7042597929        0.0824961085
 C         -1.0419670654       -0.7296687688       -0.0544538239
 C         -2.2189248984       -1.4902222361       -0.0976227116
 C         -2.1851544369       -2.8585662448       -0.2567937303
 N         -3.3926341529       -3.5969690258       -0.3100794058
 C         -4.2791274605       -3.4372110397       -1.3711801286
 C         -4.0434872106       -2.5438473934       -2.4111683315
 C         -4.9527103308       -2.4083024720       -3.4472336868
 C         -6.1081887955       -3.1664355727       -3.4693811100
 C         -6.3466446620       -4.0804625596       -2.4550812879
 C         -5.4417715891       -4.2225671829       -1.4183210406
 O         -5.7290567052       -5.1648022296       -0.4661989003
 C         -4.8421728759       -5.3157570869        0.5668880907
 C         -5.1442754071       -6.2670224473        1.5247104789
 C         -4.3040513352       -6.4539404857        2.6112695314
 C         -3.1713915286       -5.6724986648        2.7418052373
 C         -2.8618879717       -4.7197308028        1.7854465976
 C         -3.6778434213       -4.5396564267        0.6732041816
 C         -0.9583066633       -3.5313579075       -0.3691536431
 C          0.2051086463       -2.8155991235       -0.3060976146
 C          0.1927892182       -1.4194999864       -0.1493529413
 C          1.4361322812       -0.7192810028       -0.0805168580
 N          2.5869718215       -1.3740382242       -0.1570432556
 C          3.7523256408       -0.7290248931       -0.0752618466
 C          4.9744911192       -1.3912806499       -0.1543138303
 C          6.1831728667       -0.7108920165       -0.0690708225
 C          7.4315072513       -1.4650532846       -0.2251245980
 C          7.6525630735       -2.6564099687        0.4642880016
 C          8.8419472851       -3.3376099001        0.2756477401
 C          9.7737346490       -2.8064414462       -0.6032551256
 N          9.5697436010       -1.6894019836       -1.2828980371
 C          8.4356009924       -1.0434271925       -1.1012234586
 C          8.4308195380        1.0182289098        1.1659944822
 H         10.3690267570        1.4809146796        1.9640277826
 H         10.5634387603        3.5732392667        0.6101127759
 H          6.9157839225        2.9983953596       -1.1057089703
 H          4.9637679733        2.4334815747        0.3389545193
 H          1.1708085919        3.2825955164        0.3253920302
 H         -0.9460567978        4.5897121106        0.4209438257
 H         -2.2087965329        3.6887420570       -2.0811090079
 H         -2.9634608624        5.0247536809       -3.9977928820
 H         -4.9923684888        6.4290482000       -3.8124512820
 H         -6.2629826073        6.4627975144       -1.6780402109
 H         -6.9200199355        5.1460826831        2.6657936768
 H         -6.2628688979        3.8777080394        4.6983694107
 H         -4.2254951269        2.4741893521        4.6494396480
 H         -2.8735920317        2.3331496821        2.6051820890
 H         -3.1856863974        0.9897182527        0.0797712838
 H         -3.1827085819       -1.0149455678       -0.0021992360
 H         -3.1379419287       -1.9579702740       -2.4125042899
 H         -4.7472560895       -1.7052087330       -4.2394666483
 H         -6.8193183154       -3.0597936933       -4.2729360436
 H         -7.2287870111       -4.7002939915       -2.4510841043
 H         -6.0441918390       -6.8479728938        1.4020152370
 H         -4.5440998349       -7.1999505331        3.3519491067
 H         -2.5189869433       -5.7966579705        3.5921264942
 H         -1.9821774830       -4.1068343962        1.9025051184
 H         -0.9499340678       -4.6022812984       -0.5046882567
 H          1.1653873923       -3.3011635018       -0.3845222725
 H          4.9629613764       -2.4587909456       -0.3133821660
 H          6.9054616564       -3.0270711035        1.1522315119
 H          9.0439990170       -4.2580383784        0.8017227403
 H         10.7238190126       -3.2931829350       -0.7787730728
 H          8.3082572333       -0.1467420682       -1.6933992602
 H          8.2996056902        0.1177370039        1.7485604326
  94
  -157.116554291600       0.106713108924475      !
 C          8.8801169034        3.2913574816       -0.3132009764
 C          9.7959152744        2.7694975359        0.5875781579
 N          9.5721926086        1.6696859046        1.2886423580
 C          8.4347229534        1.0311975154        1.1041542927
 C          7.4449079983        1.4447430484        0.2084859514
 C          6.1920189538        0.6969290793        0.0602127976
 C          4.9854064957        1.3823567847        0.1301195117
 C          3.7614575248        0.7208454523        0.0711742279
 N          2.5969446371        1.3683354082        0.1433336185
 C          1.4443992546        0.7149705086        0.0847947716
 C          0.2021600500        1.4182043348        0.1441131411
 C          0.2146211373        2.8174463111        0.2702978205
 C         -0.9487118677        3.5354725844        0.3133431357
 C         -2.1755048164        2.8614888316        0.2096127799
 N         -3.3845006022        3.5993351858        0.2329914568
 C         -3.6708988035        4.5045976350       -0.7842976346
 C         -2.8411058355        4.6646890873       -1.8893747612
 C         -3.1534636277        5.5802215211       -2.8806161708
 C         -4.3021999464        6.3438380495       -2.7924170132
 C         -5.1553775820        6.1762949436       -1.7128269304
 C         -4.8506693058        5.2620627139       -0.7202656962
 O         -5.7507964824        5.1276457761        0.3036604844
 C         -5.4612952157        4.2222196163        1.2901115479
 C         -6.3790096977        4.0964916448        2.3174047456
 C         -6.1397386696        3.2192794910        3.3633481675
 C         -4.9710187135        2.4817018445        3.3821309255
 C         -4.0487983194        2.6009528823        2.3558300210
 C         -4.2844659268        3.4568884743        1.2849966934
 C         -2.2095706626        1.4896137193        0.0849716791
 C         -1.0333839116        0.7274873578        0.0661448426
 C         -1.0357836713       -0.7089520083       -0.0382450840
 C         -2.2140461879       -1.4682268647       -0.0632543808
 C         -2.1805656373       -2.8410729326       -0.1700470530
 N         -3.3913719610       -3.5783184012       -0.2001431952
 C         -4.2352713203       -3.5109475014       -1.3034200351
 C         -3.9574860965       -2.7056968458       -2.4030172599
 C         -4.8216919974       -2.6646297241       -3.4845746582
 C         -5.9724652988       -3.4303056083       -3.4911316762
 C         -6.2552193625       -4.2527696266       -2.4116461839
 C         -5.3966693742       -4.2992365880       -1.3280325238
 O         -5.7268946012       -5.1488161073       -0.3049977706
 C         -4.8820595642       -5.2062603580        0.7722914262
 C         -5.2268529005       -6.0620859103        1.8027712490
 C         -4.4263844635       -6.1525141851        2.9311343478
 C         -3.2884225738       -5.3737055580        3.0276301165
 C         -2.9362142384       -4.5156221197        1.9991075300
 C         -3.7157438016       -4.4295517246        0.8502891720
 C         -0.9555800368       -3.5206135891       -0.2505230285
 C          0.2089815145       -2.8045473206       -0.2118695302
 C          0.1979542750       -1.4037629942       -0.1042094412
 C          1.4416824767       -0.7028631619       -0.0525150503
 N          2.5913443361       -1.3601309983       -0.1198888616
 C          3.7582797339       -0.7161054958       -0.0632870962
 C          4.9784073475       -1.3824072874       -0.1407367127
 C          6.1884383848       -0.7015409987       -0.0908342712
 C          7.4347066782       -1.4555263974       -0.2619225058
 C          7.6789134897       -2.6343521070        0.4401839819
 C          8.8642663014       -3.3154615456        0.2272558602
 C          9.7672097282       -2.7984430298       -0.6893068719
 N          9.5395265524       -1.6944420733       -1.3825424153
 C          8.4110403600       -1.0471185289       -1.1746508408
 C          7.6854313412        2.6194723953       -0.5015632790
 H          9.0980129090        4.1985024361       -0.8556323814
 H         10.7478498511        3.2512861174        0.7659648725
 H          8.2910578941        0.1478525492        1.7125494475
 H          4.9771036199        2.4535493579        0.2623295576
 H          1.1747551324        3.3048930642        0.3387738327
 H         -0.9395255115        4.6093027071        0.4236308376
 H         -1.9485601211        4.0651939072       -1.9734741700
 H         -2.4902053186        5.6898537260       -3.7244524938
 H         -4.5447612872        7.0605712668       -3.5606863634
 H         -6.0679931469        6.7431954989       -1.6227685402
 H         -7.2722240819        4.6991402005        2.2806047949
 H         -6.8613075961        3.1246697716        4.1589522502
 H         -4.7653878904        1.8075396867        4.1990470567
 H         -3.1331440430        2.0319540050        2.3884698787
 H         -3.1733880313        1.0132573768       -0.0049357740
 H         -3.1782779232       -0.9894667117        0.0076018598
 H         -3.0549860407       -2.1150707911       -2.4123556108
 H         -4.5846517295       -2.0303586805       -4.3246314263
 H         -6.6470294625       -3.3991988557       -4.3318073428
 H         -7.1370671206       -4.8727288557       -2.3917969626
 H         -6.1270753751       -6.6468841832        1.7027519341
 H         -4.7003937830       -6.8238689952        3.7292399961
 H         -2.6656083685       -5.4260635201        3.9070949918
 H         -2.0524251937       -3.9033780988        2.0860643147
 H         -0.9493721326       -4.5963100771       -0.3404660145
 H          1.1687272905       -3.2942794648       -0.2675256080
 H          4.9635075098       -2.4534051315       -0.2738212757
 H          6.9540178931       -2.9954002332        1.1563540175
 H          9.0851386260       -4.2256723959        0.7633336691
 H         10.7116978745       -3.2874085221       -0.8870524681
 H          8.2625236784       -0.1616325653       -1.7788032811
 H          6.9500446972        2.9845332287       -1.2048151898
