  42
        -65.25742770
 N          3.3383270894        3.0038873160       -0.1274059275
 C          3.1582656001        1.8712758967       -0.0662301660
 C          2.8276106359        0.4991132832       -0.0060518163
 C          3.7429877120       -0.4970475001       -0.0031243983
 C          5.1864006423       -0.4067810346        0.0135780267
 C          5.8863769670        0.7380049438        0.4055584354
 C          7.2675147396        0.7506502462        0.4027745693
 C          7.9801010020       -0.3720055056        0.0118707151
 C          7.3005444617       -1.5188170917       -0.3681186007
 C          5.9209072492       -1.5392510420       -0.3598750799
 C          1.3805445401        0.2347374314       -0.0040094482
 C          0.8509814306       -0.8755850026        0.6534747581
 C         -0.5062880986       -1.1173498426        0.6441978054
 C         -1.3813724046       -0.2500828306       -0.0115702802
 C         -2.8293047466       -0.5104682276       -0.0045086184
 C         -3.1637595305       -1.8818501193        0.0511835686
 N         -3.3465906882       -3.0143726570        0.1076278017
 C         -3.7400015115        0.4902131797        0.0006456615
 C         -5.1839728829        0.4101053386       -0.0076616612
 C         -5.9071997264        1.5516107308        0.3599158819
 C         -7.2866016093        1.5420881133        0.3776100718
 C         -7.9775268293        0.3969232828        0.0136258597
 C         -7.2764525098       -0.7348160017       -0.3710859304
 C         -5.8955505726       -0.7329343559       -0.3835681839
 C         -0.8516974725        0.8594837600       -0.6701705107
 C          0.5054621294        1.1013345657       -0.6607282102
 H          3.3579286351       -1.5085431532       -0.0585807607
 H          5.3475946667        1.6135240142        0.7298512419
 H          7.7921431083        1.6435910254        0.7085996736
 H          9.0596308778       -0.3546601614        0.0060598212
 H          7.8497560979       -2.3990451674       -0.6681561809
 H          5.3955078113       -2.4373733747       -0.6534807330
 H          1.5032436821       -1.5431122942        1.1968744771
 H         -0.8999820109       -1.9779203301        1.1653231431
 H         -3.3484610607        1.4993481328        0.0562652047
 H         -5.3729530527        2.4474616538        0.6441465069
 H         -7.8268245839        2.4297266059        0.6723111818
 H         -9.0571122012        0.3884403334        0.0255127121
 H         -7.8101240951       -1.6267937614       -0.6636382665
 H         -5.3659528138       -1.6172793991       -0.6985902379
 H         -1.5038906935        1.5263243044       -1.2144372169
 H          0.8993674697        1.9601104068       -1.1845185651
