42
 energy: -65.191272195876 gnorm: 0.000065203444 xtb: 6.7.1 (edcfbbe)
N            3.40837261787630        2.98804983866871       -0.18793646679389
C            3.16894007535070        1.86605781520212       -0.09899270698340
C            2.80178014580216        0.51200716864107        0.03302640010245
C            3.78034636914126       -0.47998716454848        0.24660067064869
C            5.18505169353850       -0.39423292654765        0.11719672379784
C            5.87053070498150        0.68100858741146       -0.49046062648247
C            7.24337320280103        0.67940798438779       -0.58089299668215
C            7.98772047728476       -0.38224350520632       -0.08032973964777
C            7.33495813767015       -1.46147295337866        0.50621864992208
C            5.96453809464372       -1.47432304220793        0.59783233632491
C            1.41001658694534        0.24253863049121        0.01461828156434
C            0.87652726460663       -1.07776307137214       -0.00057915091699
C           -0.46278582659280       -1.30348718703880       -0.01052705406358
C           -1.40893236900890       -0.23843917518914        0.00804810167382
C           -2.80180363195165       -0.50847254915988        0.02116790160426
C           -3.16580512748323       -1.86390694251516       -0.10946494907811
N           -3.40197066854278       -2.98645306648474       -0.19856699825843
C           -3.77996632357579        0.48288831041002        0.22565753949717
C           -5.18669924609929        0.39458247689069        0.10856627775091
C           -5.96115811699163        1.48253152242131        0.57815722479303
C           -7.33254577427267        1.46900811007497        0.49924696072946
C           -7.99082761335942        0.38053943004493       -0.06312829857654
C           -7.25139265299359       -0.68952275463950       -0.55245437349014
C           -5.87756820974087       -0.69016408217860       -0.47438643746165
C           -0.87551177934203        1.08156003502278       -0.01264217482394
C            0.46375117734362        1.30753369039319       -0.01640695729297
H            3.41339086071621       -1.43701958073624        0.59130264736907
H            5.31272924068737        1.50441002699785       -0.90395172914043
H            7.74615916308001        1.51185446977129       -1.05047789713068
H            9.06456202759381       -0.37334808859345       -0.15289961713199
H            7.90832305897685       -2.29296183087277        0.88936378775415
H            5.46314389788132       -2.31464943367471        1.05696052715135
H            1.54448242404102       -1.92439436512068       -0.02631151859882
H           -0.83053801508137       -2.31887532543177       -0.02484449967423
H           -3.41293849699668        1.44598764712028        0.55297059562149
H           -5.45554539763469        2.33034797599531        1.01855175499141
H           -7.90196466024679        2.30716432953690        0.87363338166698
H           -9.06830502614065        0.37082536297217       -0.12564918052314
H           -7.75852243493533       -1.52966293234647       -1.00328677205469
H           -5.32406662969576       -1.52095020995911       -0.87860996059123
H           -1.54302865150441        1.92818878479505       -0.04806415113508
H            0.83170587255316        2.32276791828925       -0.03565222547573
