42
 energy: -65.191189646401 gnorm: 0.000073647471 xtb: 6.7.1 (edcfbbe)
N            3.40457412970319        2.95641398056207       -0.44985274128251
C            3.16808647807910        1.83977402678796       -0.30420477373740
C            2.80348333479954        0.48718024705918       -0.15010299134412
C            3.78235525686708       -0.52595988164072       -0.14236464392442
C            5.18840384084065       -0.41548484532634       -0.04510538724040
C            5.87990978814258        0.76747834997806        0.29719951788696
C            7.25338094897374        0.78174294686021        0.37797304371121
C            7.99247891949917       -0.36839655402316        0.12810960277132
C            7.33386175131997       -1.55036168316413       -0.19419676341656
C            5.96282075760131       -1.57884867423666       -0.27273419412143
C            1.41095287100767        0.22764921167952       -0.07787111439102
C            0.87478645438630       -1.05976671598113        0.21020155365005
C           -0.46474989094248       -1.27344915260940        0.27934108171519
C           -1.40975976513568       -0.22610153941757        0.07817049294064
C           -2.80245478753465       -0.48576350177296        0.15062373288675
C           -3.16648962873782       -1.83849312954371        0.30542885459009
N           -3.40225361608328       -2.95522867315782        0.45146331614835
C           -3.78118398554932        0.52705105227565        0.14176464417528
C           -5.18764390210572        0.41698970048001        0.04754713331551
C           -5.96056704616366        1.58200559404586        0.27140764471678
C           -7.33179452652537        1.55451024960766        0.19535836044073
C           -7.99206452789369        0.37174589989479       -0.12044232329367
C           -7.25447824855476       -0.78020661102325       -0.36622982220422
C           -5.88081662998480       -0.76685532387659       -0.28795058229312
C           -0.87359439201604        1.06127622669694       -0.20993190411968
C            0.46592841790038        1.27503211933842       -0.27898082053917
H            3.41510657547123       -1.53601558215713       -0.26129617471492
H            5.32681485340874        1.66559897249109        0.51485368435918
H            7.76073066423854        1.69758719621309        0.64274705899915
H            9.06976847604549       -0.34689465622568        0.19079422837499
H            7.90299643745927       -2.44917247648409       -0.38164893925334
H            5.45703447727923       -2.49993419026563       -0.52599832007003
H            1.54029105019050       -1.88679255288410        0.40147435853711
H           -0.83338308411640       -2.26237805555212        0.50864821575797
H           -3.41368052493700        1.53748222953401        0.25661603210522
H           -5.45352580102368        2.50379120243150        0.51957839703823
H           -7.89972202794319        2.45472504346551        0.37970188054926
H           -9.06948156464325        0.35097538262374       -0.18118700189462
H           -7.76312606576375       -1.69682258291274       -0.62579001615563
H           -5.32903315541010       -1.66657260415672       -0.50221911172846
H           -1.53898944782033        1.88839234915535       -0.40117378396715
H            0.83460545701321        2.26396272697577       -0.50822538309509
