59
 energy: -96.090430455178 gnorm: 0.000040723227 xtb: 6.7.1 (edcfbbe)
C           -2.69953388222792       -3.94540669028978        0.36246878745364
C           -1.73409652730516       -3.08547899184061        0.88015275057613
C           -1.88349891110303       -1.71218681091720        0.82111578295785
C           -3.02455640553390       -1.20894090697310        0.21364020543900
C           -4.01945105501727       -2.07431681884565       -0.29359679519912
C           -3.85019115990891       -3.45090005093080       -0.21931257641141
C           -5.07168521874898       -1.23861188280595       -0.80431059017763
C           -6.27752104005565       -1.50903192413949       -1.43814354833498
C           -7.06391047060731       -0.44903236314604       -1.84431956971254
C           -6.65161141383513        0.86560115934281       -1.64047236194131
C           -5.45569251939626        1.15857033633325       -1.01107894201441
C           -4.67540798846690        0.09794051901827       -0.57415005848721
N           -3.43415283813934        0.10554213926468        0.04354398325397
C           -2.72087008852268        1.23734845479806        0.42993663057618
C           -3.34470464137260        2.29678633547676        1.09884164504475
N           -2.70506058061202        3.38294970289662        1.48655624360719
C           -1.41245595943058        3.48963427411940        1.24046056305576
C           -0.68250235086504        2.50360977188172        0.57396106383871
C            0.75516271538008        2.62619015313695        0.31966808067885
C            1.40893233430801        3.84760208584919        0.15075847906044
N            2.72556986880475        3.90855510321342        0.00619527724860
C            3.40439830274381        2.77996945063821       -0.02324036768191
C            2.75286806683743        1.53679481071965        0.05695552480871
N            3.42627966498454        0.33532495693323       -0.00752539769363
C            4.56706474394606        0.05290337202037       -0.75401910152407
C            5.22612718867122        0.81895179988153       -1.70378915132382
C            6.33165457399245        0.26930998173669       -2.32984981509559
C            6.77069003929638       -1.01738879552841       -2.03405083105739
C            6.09321784365016       -1.80181377014212       -1.12058927823347
C            4.98057371425201       -1.27037974759749       -0.48326524392907
C            4.04145899911460       -1.81556179753547        0.46149743189409
C            3.94084548001612       -3.04675980003070        1.09567757231600
C            2.89835147074467       -3.25168195501004        1.97880245647383
C            1.97249155735038       -2.24472282627742        2.23661063460993
C            2.05268301548406       -1.01278598076192        1.61213284422439
C            3.08818624728201       -0.80798485735486        0.71532097483091
N            1.43939113098583        1.48469592425593        0.25190690539828
C           -1.35944595557113        1.35797569413106        0.16440810324958
H           -2.54567415131250       -5.01246989045061        0.42610917674241
H           -0.84727900372069       -3.49803808604160        1.33721727316176
H           -1.13362423893374       -1.06201245620055        1.24346983632295
H           -4.60725387638971       -4.11582020382929       -0.60669190319002
H           -6.58610826015158       -2.52858867089121       -1.61295671873905
H           -8.00653093430060       -0.63680595427521       -2.33670835295384
H           -7.27686355005167        1.67610726524120       -1.98498353107625
H           -5.14048536871963        2.18265234896051       -0.88005713471923
H           -4.39637631334763        2.25622956042402        1.34731417993516
H           -0.94050478371811        4.38933832578011        1.61038876047418
H            0.88302692433286        4.79059534789700        0.13630307046236
H            4.47950792323572        2.86649352610612       -0.07462767052436
H            4.88723617458011        1.80716672177735       -1.97383254956457
H            6.85933764846631        0.85362085229344       -3.06887416814234
H            7.64089209370361       -1.40914352087468       -2.53886024609923
H            6.41270561796127       -2.81078881466627       -0.90974027920039
H            4.66675784549711       -3.82194701053740        0.90351824145679
H            2.80001187126081       -4.20253234272242        2.48118569888871
H            1.17357899863853       -2.42603911587933        2.94044129376204
H            1.33306002217744       -0.23559993335257        1.81306890989453
H           -0.82457740022250        0.58738378443291       -0.36917694470251
