59
 energy: -96.019672244909 gnorm: 0.000031179117 xtb: 6.7.1 (edcfbbe)
C           -6.29924833379429       -2.35775560240948        2.36448507027395
C           -4.93585551969963       -2.22375557494532        2.61606026479623
C           -4.14508574928979       -1.37205587476706        1.86654749867614
C           -4.75338978110869       -0.65737277018681        0.84398568019610
C           -6.14075536805121       -0.77255709587480        0.59320681644978
C           -6.91364322520908       -1.63344374451616        1.35916499949626
C           -6.43481057375403        0.12382908211907       -0.49356645041063
C           -7.59493059115443        0.43799817085370       -1.18711872992076
C           -7.52074327244238        1.35565308583117       -2.21906375844204
C           -6.30936308518052        1.94827333376894       -2.56808959702459
C           -5.14002597095217        1.65024545056150       -1.89277532781247
C           -5.21295785632395        0.74400799318539       -0.84406138998179
N           -4.20578146175600        0.25760824951449       -0.03382167790444
C           -2.86645788666174        0.65687378383175       -0.06079563124034
C           -2.54030501273465        2.02315150615080        0.00552810400640
N           -1.27734772366644        2.42172628787697       -0.02501790713769
C           -0.30142875468939        1.56821697672065       -0.09169698744948
C           -0.49807242548984        0.15845464399970       -0.13164775775034
C            0.63208069630916       -0.69244598625125       -0.15859617867413
C            0.55429903729021       -2.10871097022249       -0.24164598225081
N            1.61141129508013       -2.85413054886281       -0.24186324506025
C            2.83285213124475       -2.30398326233378       -0.16781685579874
C            2.94979111437177       -0.90688578904556       -0.14531007212082
N            4.19534182891449       -0.30808572830604       -0.07429966490913
C            4.50695117458106        0.77002374699274        0.74288346927316
C            3.68162627461905        1.50905636996861        1.57488507130346
C            4.25388979843639        2.54058958280035        2.29804927540095
C            5.61455921513904        2.82117757137958        2.20719753384496
C            6.44307714638377        2.07737563774806        1.38664046330980
C            5.88898708516967        1.04188902619416        0.64756203733694
C            6.43218283143294        0.09088176679037       -0.28790811595650
C            7.70410273142113       -0.11228304306851       -0.80343935619464
C            7.88684370488845       -1.11290138986978       -1.74032753423405
C            6.81598094798265       -1.88702977022719       -2.17702088717577
C            5.53877738795287       -1.70116997219258       -1.67704280180173
C            5.35595537828066       -0.72193930691278       -0.71154525383713
N            1.88252246389295       -0.14038265020744       -0.14240353489126
C           -1.84618066846213       -0.27028363301305       -0.13896141938126
H           -6.88359788359614       -3.03313881145468        2.97150731711152
H           -4.48663384355725       -2.79311483358862        3.41632589742701
H           -3.09236847932587       -1.25939831649242        2.07868467631628
H           -7.97253141390356       -1.73071500124065        1.17402142375623
H           -8.53263100631201       -0.02907966089330       -0.92698006148381
H           -8.41265368096783        1.61451070237616       -2.77002430025333
H           -6.28091500885922        2.65286957217009       -3.38597828379342
H           -4.20162182507398        2.10276244605429       -2.17581018404959
H           -3.29855586161493        2.78466502244555        0.09774542902232
H            0.70716445356091        1.95499338378065       -0.12556605175063
H           -0.40128644955834       -2.60301546524100       -0.33131983412172
H            3.67906587823009       -2.96030217388446       -0.06842177334086
H            2.62830098693094        1.28753784314550        1.64850250993397
H            3.63115323347226        3.13655535386516        2.94839124360169
H            6.02654394908106        3.63135985526861        2.79003711754615
H            7.49797024509057        2.29501952414836        1.31971001648286
H            8.52887595057145        0.50511153381259       -0.48253344692387
H            8.86909116938856       -1.28882355970102       -2.15237529189822
H            6.98115986042349       -2.64662590110849       -2.92643174025446
H            4.71308274059211       -2.29122330205909       -2.04420953832290
H           -2.09325155730331       -1.31722055924343       -0.22915460770806
