59
 energy: -96.015999674619 gnorm: 0.000070065081 xtb: 6.7.1 (edcfbbe)
C           -3.03528318884175       -3.89193894471606        1.02727366730688
C           -2.10864712094106       -3.00344984794445        1.56661782580909
C           -2.15822830151894       -1.65009195320240        1.28716294180127
C           -3.16127291401835       -1.20104554595596        0.43873560322073
C           -4.12103488683094       -2.09374587633421       -0.09493924322794
C           -4.05055732841426       -3.44715888205642        0.19924952515166
C           -5.02413949200384       -1.29848404810047       -0.88458796430020
C           -6.14172547963917       -1.59815169391065       -1.64932619898427
C           -6.78501141803727       -0.56868163252560       -2.31337785788581
C           -6.31591801935063        0.74028096565327       -2.23380319419487
C           -5.20277163957682        1.06273684259148       -1.47915530589693
C           -4.56911206953458        0.03767010157065       -0.78894835765258
N           -3.44328215973058        0.08079764022394        0.00976422833589
C           -2.74545959164019        1.24147477958859        0.35934914139944
C           -3.45074173204489        2.36143006652292        0.83752505769288
N           -2.83219298635727        3.49323031744221        1.13800159543426
C           -1.53328811045613        3.58992392509868        1.02328216827278
C           -0.70189816876595        2.51792221959036        0.61271616817468
C            0.71255135004156        2.59591489415914        0.53403012659326
C            1.45509208253539        3.79583588118402        0.66103819611557
N            2.74914785516495        3.82374999156859        0.58476410138866
C            3.43505530132596        2.68613938514296        0.37486972938132
C            2.73099114769214        1.49410437333567        0.17238944985214
N            3.41822276207993        0.30920071386468       -0.03643518336809
C            4.56878770360341        0.13426456147743       -0.78899480573669
C            5.21124394903679        1.01612481238998       -1.64614314667170
C            6.34099341054983        0.56716019958107       -2.30794737106521
C            6.81751334775743       -0.72878884487410       -2.13395151297405
C            6.16370867368737       -1.62166258662120       -1.30367747007148
C            5.02953414023470       -1.19328329841222       -0.63009276151617
C            4.10990885634922       -1.84493237622871        0.26746090328893
C            4.03771766000001       -3.12362324166393        0.80041656467302
C            2.99924996418856       -3.42200166649065        1.66491859937006
C            2.04396030880537       -2.46568621744833        1.99749268116261
C            2.09463443934987       -1.18548614024335        1.47574657074322
C            3.12893051289857       -0.88639518649687        0.60370744587169
N            1.41831007503044        1.45382713958554        0.24592924478677
C           -1.37252596242666        1.31904740426393        0.25987498625309
H           -2.96182303573139       -4.94206274191254        1.26746861789477
H           -1.33765715638537       -3.37995363491632        2.22128288381965
H           -1.44637502556626       -0.96551094636313        1.72132873439185
H           -4.77585746088000       -4.13506809640249       -0.20765096734520
H           -6.49769858247816       -2.61415745046710       -1.72581905679059
H           -7.65905988813507       -0.78085904109305       -2.91080151831959
H           -6.82932316243080        1.52083726500878       -2.77533899837718
H           -4.83573066763144        2.07688237740742       -1.43490867509947
H           -4.51766272967786        2.33187186295883        0.99852805032508
H           -1.12023155928966        4.55722722212889        1.27287538118321
H            0.95106232922685        4.74271764244337        0.78251272877461
H            4.50850276322363        2.72291018215820        0.43606111480082
H            4.83969264866829        2.01681009211588       -1.80556135356770
H            6.85918002792843        1.23768375959523       -2.97700651862356
H            7.70330986578289       -1.04194468730942       -2.66570244418346
H            6.52201581035379       -2.63250661821328       -1.18491464710733
H            4.77845739135407       -3.86626487209399        0.54688285984903
H            2.92862470159375       -4.41021488727775        2.09413488083236
H            1.25156555392894       -2.72408336330275        2.68318156469534
H            1.35923321227831       -0.43945618737033        1.73347815675432
H           -0.79231880350777        0.49198896162115       -0.11953750506943
