  57
        -95.42221048
 O          3.5626554249       -2.4576369896       -0.7042358625
 C          4.0166744861       -1.3974759715       -0.3233030121
 C          5.4054090227       -1.3052050926        0.1965942693
 C          6.0093406394       -2.4779041991        0.6563842414
 C          7.2890973815       -2.4519892924        1.1774425543
 C          7.9906262715       -1.2573502216        1.2467163272
 C          7.4084260070       -0.0894277048        0.7791774983
 C          6.1280945966       -0.1202596855        0.2648226978
 S          5.4385492323        1.3759049137       -0.4354198198
 O          5.8459036526        2.5090508392        0.3498114035
 O          5.7547120411        1.3904796312       -1.8389372928
 C          3.6818717882        1.1161114193       -0.2546670383
 C          2.8397504534        2.2080934480       -0.1836288153
 C          1.4704834868        2.0240286016       -0.1208459804
 C          0.9247399957        0.7378213049       -0.1464722232
 C         -0.5253221952        0.5311428640       -0.0951647188
 C         -1.3404853714        1.3391139608        0.6981960463
 C         -2.7019985405        1.1375110670        0.7553157381
 C         -3.3025914512        0.1245297465        0.0030938966
 N         -4.6771741907       -0.0809963330        0.0534003625
 C         -5.5535877972        1.0006063102        0.2173655061
 C         -5.2978587961        2.2213158689       -0.4058619938
 C         -6.1693254457        3.2807242314       -0.2426473800
 C         -7.3086292460        3.1394597213        0.5325484363
 C         -7.5696296364        1.9267285495        1.1491048091
 C         -6.6999968652        0.8639637967        0.9989877621
 C         -5.2003005098       -1.3769063736       -0.0718945253
 C         -4.5664880804       -2.4561558340        0.5421037863
 C         -5.0855173623       -3.7300041190        0.4154129188
 C         -6.2429854145       -3.9462487890       -0.3143010712
 C         -6.8793354013       -2.8757550456       -0.9206940985
 C         -6.3639712915       -1.5990277952       -0.8059418140
 C         -2.4902336266       -0.6808490662       -0.7999037168
 C         -1.1280080916       -0.4839660425       -0.8395332964
 C          1.7907560547       -0.3501581958       -0.2239392644
 C          3.1722109241       -0.1776340381       -0.2731788753
 H          5.4492627706       -3.3992122738        0.5942652644
 H          7.7431761545       -3.3656543210        1.5305620239
 H          8.9889581173       -1.2366513708        1.6561949427
 H          7.9266200250        0.8562253252        0.8085564256
 H          3.2780675745        3.1936602418       -0.1773797197
 H          0.8161267621        2.8813707897       -0.0781508723
 H         -0.8960699138        2.1119783594        1.3075166406
 H         -3.3140488810        1.7585198378        1.3925260020
 H         -4.4177034167        2.3292925050       -1.0225540387
 H         -5.9618061671        4.2203100402       -0.7330752017
 H         -7.9888979689        3.9684651385        0.6544014585
 H         -8.4537726667        1.8086896864        1.7579501312
 H         -6.9011817939       -0.0789303991        1.4861874637
 H         -3.6695556640       -2.2867526997        1.1199017832
 H         -4.5868959402       -4.5581390012        0.8968364813
 H         -6.6467629512       -4.9426467112       -0.4090075407
 H         -7.7797573865       -3.0363715676       -1.4948875092
 H         -6.8564353392       -0.7659692170       -1.2857201084
 H         -2.9412221079       -1.4576904963       -1.3991519457
 H         -0.5232046009       -1.1019782662       -1.4857134970
 H          1.4059439748       -1.3591174927       -0.2261835385
