  57
  -95.0564176308000       0.147878720487364      !
 O          3.5626554249       -2.4576369896       -0.7042358625
 C          4.0166744861       -1.3974759715       -0.3233030121
 C          5.4054090227       -1.3052050926        0.1965942693
 C          6.0093406394       -2.4779041991        0.6563842414
 C          7.2890973815       -2.4519892924        1.1774425543
 C          7.9906262715       -1.2573502216        1.2467163272
 C          7.4084260070       -0.0894277048        0.7791774983
 C          6.1280945966       -0.1202596855        0.2648226978
 S          5.4385492323        1.3759049137       -0.4354198198
 O          5.8459036526        2.5090508392        0.3498114035
 O          5.7547120411        1.3904796312       -1.8389372928
 C          3.6818717882        1.1161114193       -0.2546670383
 C          2.8397504534        2.2080934480       -0.1836288153
 C          1.4704834868        2.0240286016       -0.1208459804
 C          0.9247399957        0.7378213049       -0.1464722232
 C         -0.5253221952        0.5311428640       -0.0951647188
 C         -1.3404853714        1.3391139608        0.6981960463
 C         -2.7019985405        1.1375110670        0.7553157381
 C         -3.3025914512        0.1245297465        0.0030938966
 N         -4.6771741907       -0.0809963330        0.0534003625
 C         -5.5535877972        1.0006063102        0.2173655061
 C         -5.2978587961        2.2213158689       -0.4058619938
 C         -6.1693254457        3.2807242314       -0.2426473800
 C         -7.3086292460        3.1394597213        0.5325484363
 C         -7.5696296364        1.9267285495        1.1491048091
 C         -6.6999968652        0.8639637967        0.9989877621
 C         -5.2003005098       -1.3769063736       -0.0718945253
 C         -4.5664880804       -2.4561558340        0.5421037863
 C         -5.0855173623       -3.7300041190        0.4154129188
 C         -6.2429854145       -3.9462487890       -0.3143010712
 C         -6.8793354013       -2.8757550456       -0.9206940985
 C         -6.3639712915       -1.5990277952       -0.8059418140
 C         -2.4902336266       -0.6808490662       -0.7999037168
 C         -1.1280080916       -0.4839660425       -0.8395332964
 C          1.7907560547       -0.3501581958       -0.2239392644
 C          3.1722109241       -0.1776340381       -0.2731788753
 H          5.4492627706       -3.3992122738        0.5942652644
 H          7.7431761545       -3.3656543210        1.5305620239
 H          8.9889581173       -1.2366513708        1.6561949427
 H          7.9266200250        0.8562253252        0.8085564256
 H          3.2780675745        3.1936602418       -0.1773797197
 H          0.8161267621        2.8813707897       -0.0781508723
 H         -0.8960699138        2.1119783594        1.3075166406
 H         -3.3140488810        1.7585198378        1.3925260020
 H         -4.4177034167        2.3292925050       -1.0225540387
 H         -5.9618061671        4.2203100402       -0.7330752017
 H         -7.9888979689        3.9684651385        0.6544014585
 H         -8.4537726667        1.8086896864        1.7579501312
 H         -6.9011817939       -0.0789303991        1.4861874637
 H         -3.6695556640       -2.2867526997        1.1199017832
 H         -4.5868959402       -4.5581390012        0.8968364813
 H         -6.6467629512       -4.9426467112       -0.4090075407
 H         -7.7797573865       -3.0363715676       -1.4948875092
 H         -6.8564353392       -0.7659692170       -1.2857201084
 H         -2.9412221079       -1.4576904963       -1.3991519457
 H         -0.5232046009       -1.1019782662       -1.4857134970
 H          1.4059439748       -1.3591174927       -0.2261835385
  57
  -95.0563097065000       0.131918926951466      !
 O          3.5195887593        1.5701255265        2.1222035629
 C          3.9893621278        0.9556834357        1.1865733428
 C          5.3754354784        1.2176814458        0.7186408861
 C          5.9483884129        2.4529723313        1.0293777531
 C          7.2218621753        2.7665444405        0.5929327962
 C          7.9484583623        1.8523399893       -0.1558471492
 C          7.3973448559        0.6163131449       -0.4562589852
 C          6.1226719792        0.3115737001       -0.0239714861
 S          5.4625929161       -1.3224374903       -0.3387997523
 O          5.9029919324       -1.7790325416       -1.6290551578
 O          5.7629254378       -2.1497953379        0.7991184905
 C          3.7032967222       -1.0231295851       -0.3720694893
 C          2.8841236713       -1.8600991648       -1.1033916245
 C          1.5129297115       -1.6821189543       -1.0784512768
 C          0.9402015586       -0.6743558907       -0.2971553981
 C         -0.5126280610       -0.4887951696       -0.2492863693
 C         -1.0692592788        0.7874413271       -0.1515836258
 C         -2.4336415261        0.9671060153       -0.1048004327
 C         -3.2974863993       -0.1307222315       -0.1419446868
 N         -4.6752082793        0.0480859304       -0.0810211476
 C         -5.2165832101        1.0950091549        0.6800041673
 C         -6.3185221395        1.8091097773        0.2128059981
 C         -6.8546872848        2.8325632589        0.9703314362
 C         -6.2996300227        3.1634825977        2.1955666979
 C         -5.2028359072        2.4577970718        2.6625483571
 C         -4.6643382512        1.4277210213        1.9160986513
 C         -5.5353795625       -0.8095701365       -0.7805430814
 C         -6.7504409751       -1.1989169476       -0.2187173903
 C         -7.6029228649       -2.0328426848       -0.9158560515
 C         -7.2570375353       -2.4965243261       -2.1745316815
 C         -6.0492729789       -2.1149665886       -2.7352887888
 C         -5.1935542759       -1.2747126306       -2.0496025052
 C         -2.7448944961       -1.4106474979       -0.2376771476
 C         -1.3795092256       -1.5816803636       -0.2955321350
 C          1.7836634714        0.1539718724        0.4396752267
 C          3.1673989540       -0.0015766812        0.4044323266
 H          5.3700593506        3.1525279960        1.6144293299
 H          7.6515116036        3.7262818246        0.8375988267
 H          8.9418054835        2.0982616650       -0.4989277026
 H          7.9350752639       -0.1229806341       -1.0289343231
 H          3.3426315720       -2.6372740621       -1.6946834355
 H          0.8804310752       -2.3195440243       -1.6772345625
 H         -0.4240144650        1.6529984052       -0.1469470806
 H         -2.8456465555        1.9636438168       -0.0470810793
 H         -6.7474777256        1.5567340563       -0.7459353148
 H         -7.7072287839        3.3803154261        0.5969071394
 H         -6.7195756879        3.9655226634        2.7831875404
 H         -4.7678862521        2.7049218890        3.6196469474
 H         -3.8157249147        0.8711770409        2.2861546124
 H         -7.0180257962       -0.8442374041        0.7657933118
 H         -8.5405920627       -2.3287389112       -0.4692127423
 H         -7.9244642315       -3.1501330933       -2.7150707898
 H         -5.7744634213       -2.4667043847       -3.7187572883
 H         -4.2576891031       -0.9682701622       -2.4937718583
 H         -3.3983675479       -2.2702780834       -0.2527171071
 H         -0.9760420920       -2.5823188573       -0.3366409968
 H          1.3783686984        0.9307865279        1.0709409231
  57
  -95.0562895896000       0.129140368969545      !
 O          3.4492032448        1.0492240528        2.3756559088
 C          3.9645016212        0.6704734016        1.3423031610
 C          5.3985705582        0.9464869037        1.0682851990
 C          6.0190261754        1.9516236870        1.8154612365
 C          7.3459447347        2.2721636250        1.6021188986
 C          8.0809975933        1.5958460183        0.6393419890
 C          7.4812372659        0.5892876545       -0.1008038940
 C          6.1542174761        0.2754566649        0.1145946543
 S          5.4501460460       -1.1037558346       -0.7824736859
 O          5.9136723777       -1.0772879437       -2.1431058475
 O          5.6983422005       -2.2978589005       -0.0190014058
 C          3.6984543974       -0.7659579765       -0.7359715422
 C          2.8844570360       -1.3569385608       -1.6825250550
 C          1.5126938909       -1.1971784743       -1.6154867491
 C          0.9361188713       -0.4486132842       -0.5858918840
 C         -0.5186476613       -0.3053542123       -0.4790590796
 C         -1.0963164328        0.9011412970       -0.0829309465
 C         -2.4622906540        1.0289936777        0.0370307233
 C         -3.3043113696       -0.0589651696       -0.2114162460
 N         -4.6808859510        0.0594756881       -0.0601470847
 C         -5.2181797470        0.9181000235        0.9109075433
 C         -6.3697078956        1.6533734126        0.6343368977
 C         -6.9060382202        2.4912597145        1.5927856333
 C         -6.3017260681        2.6154320691        2.8330758018
 C         -5.1564510758        1.8876910707        3.1116168555
 C         -4.6180398023        1.0397381369        2.1631481364
 C         -5.5539955247       -0.6989892138       -0.8542806212
 C         -6.7025548604       -1.2586910981       -0.2966665659
 C         -7.5666980620       -1.9980193736       -1.0810351868
 C         -7.2981117487       -2.1956967246       -2.4256073663
 C         -6.1575037782       -1.6418826870       -2.9837939426
 C         -5.2909666721       -0.8948665064       -2.2091950469
 C         -2.7285409790       -1.2686113500       -0.6095343464
 C         -1.3630409972       -1.3824151870       -0.7493668559
 C          1.7734780464        0.1451721913        0.3541129779
 C          3.1583622034       -0.0033788275        0.2939985757
 H          5.4328129188        2.4667669064        2.5619280666
 H          7.8109108803        3.0506954206        2.1880070928
 H          9.1170812416        1.8467072346        0.4703512480
 H          8.0224477249        0.0360931446       -0.8522979464
 H          3.3485167312       -1.9333742552       -2.4675143458
 H          0.8821177832       -1.6449276119       -2.3684997051
 H         -0.4665217746        1.7583977616        0.1024974926
 H         -2.8923268620        1.9782408277        0.3200976654
 H         -6.8391333580        1.5602173578       -0.3340834610
 H         -7.7981874337        3.0562867450        1.3665202314
 H         -6.7209282681        3.2745235386        3.5778901027
 H         -4.6830437380        1.9725451179        4.0785325701
 H         -3.7322610321        0.4635411692        2.3872101073
 H         -6.9082820834       -1.1121902919        0.7535942119
 H         -8.4512907686       -2.4298350528       -0.6366388386
 H         -7.9731503034       -2.7777106411       -3.0343941820
 H         -5.9443973781       -1.7854823248       -4.0328266160
 H         -4.4077179980       -0.4540647135       -2.6481484721
 H         -3.3624704384       -2.1224352928       -0.7968371462
 H         -0.9389133086       -2.3346449529       -1.0310525387
 H          1.3613607231        0.7190026258        1.1711075745
  57
  -95.0562032620000       0.117866016189144      !
 O          3.5557605643       -0.3410288136       -2.5520358614
 C          4.0153787670       -0.2419289273       -1.4321935943
 C          5.4128672438       -0.6559001740       -1.1436012725
 C          6.0266186986       -1.5423006384       -2.0321965248
 C          7.3152556993       -1.9869737559       -1.8050358854
 C          8.0171782546       -1.5531543733       -0.6899007851
 C          7.4250672953       -0.6618818378        0.1912816629
 C          6.1357344439       -0.2256220799       -0.0375898341
 S          5.4336843922        1.0028685887        1.0586323742
 O          5.8423912348        0.7301577094        2.4094361683
 O          5.7373249236        2.3017473210        0.5200038389
 C          3.6793419820        0.7193084212        0.8917810166
 C          2.8365694939        1.0944138060        1.9191632124
 C          1.4679690342        0.9540065471        1.7789836691
 C          0.9231229613        0.4507124571        0.5947464560
 C         -0.5274970266        0.3084409496        0.4330130112
 C         -1.3313846940       -0.0980196637        1.4981475636
 C         -2.6931673512       -0.2410199770        1.3471358427
 C         -3.3041447470        0.0260099315        0.1192797481
 N         -4.6791350728       -0.1198645500       -0.0364921762
 C         -5.3902665081        0.7316294942       -0.8945356501
 C         -5.0696204206        2.0861085317       -0.9730555157
 C         -5.7772544834        2.9196521190       -1.8173968606
 C         -6.8163741116        2.4216425886       -2.5862586655
 C         -7.1419602852        1.0775281721       -2.5072382287
 C         -6.4347690805        0.2342129108       -1.6722563981
 C         -5.3677696066       -1.1194656887        0.6655989104
 C         -6.6374572173       -0.8693146498        1.1838137882
 C         -7.3162251304       -1.8592697917        1.8678387702
 C         -6.7407643750       -3.1056541291        2.0524923314
 C         -5.4787489692       -3.3584293017        1.5401674613
 C         -4.7957499059       -2.3780317666        0.8470560541
 C         -2.5030477257        0.4401570402       -0.9481302097
 C         -1.1409339552        0.5735970395       -0.7918055244
 C          1.7894671803        0.0840112705       -0.4319196058
 C          3.1708860750        0.2064250638       -0.2966234828
 H          5.4666325248       -1.8693856318       -2.8956396582
 H          7.7763076553       -2.6730067250       -2.4996598293
 H          9.0228268382       -1.9019201266       -0.5109515044
 H          7.9421564109       -0.2963674189        1.0645997392
 H          3.2742618274        1.4927813628        2.8211026077
 H          0.8136163895        1.2604201125        2.5807663396
 H         -0.8806123734       -0.3252830065        2.4527258484
 H         -3.2985434189       -0.5573503952        2.1835921718
 H         -4.2672149819        2.4786826167       -0.3656033610
 H         -5.5207215161        3.9675150233       -1.8678966015
 H         -7.3691870762        3.0768296519       -3.2420549036
 H         -7.9477929784        0.6800106455       -3.1064082017
 H         -6.6844611533       -0.8152813991       -1.6176272217
 H         -7.0843148523        0.1046399464        1.0478599711
 H         -8.2983982580       -1.6525602539        2.2665482441
 H         -7.2725292667       -3.8752713110        2.5908142088
 H         -5.0253350884       -4.3296688559        1.6728531480
 H         -3.8167251355       -2.5807293400        0.4379752080
 H         -2.9594593687        0.6487509438       -1.9042702444
 H         -0.5432789524        0.9051859120       -1.6273559026
 H          1.4054989534       -0.3268361271       -1.3539712284
  57
  -95.0561094985000       0.106732795336727      !
 O          3.5747878149       -2.3889264142        0.9024646958
 C          4.0102435379       -1.3017106928        0.5833119660
 C          5.3644709033       -0.8638287163        1.0103242027
 C          5.9253990564       -1.4737288228        2.1345501132
 C          7.1671532148       -1.0831492459        2.5993698884
 C          7.8728465921       -0.0813214442        1.9493748907
 C          7.3342826280        0.5196979820        0.8221940847
 C          6.0914431701        0.1300301717        0.3663273178
 S          5.4541484871        0.8404485253       -1.1482738256
 O          5.8413990161        2.2222086875       -1.2341359803
 O          5.8278258494       -0.0257033937       -2.2342920218
 C          3.6887555557        0.7210748819       -0.9110695712
 C          2.8534496171        1.6195288279       -1.5444754815
 C          1.4815293416        1.4971517050       -1.4167128599
 C          0.9286870767        0.4542265285       -0.6696214433
 C         -0.5240698383        0.3189617206       -0.5185255229
 C         -1.3297566260        1.4430861791       -0.3378134977
 C         -2.6897909213        1.3195100759       -0.1569763067
 C         -3.2955290098        0.0605603816       -0.1614514408
 N         -4.6673050453       -0.0640635819        0.0408118660
 C         -5.3265155094        0.8039008984        0.9230571355
 C         -6.6058895387        1.2722263632        0.6282555600
 C         -7.2545464242        2.1197921805        1.5054965076
 C         -6.6393379681        2.5183938326        2.6808936816
 C         -5.3671080700        2.0571311217        2.9769135049
 C         -4.7136426472        1.2028848712        2.1102547895
 C         -5.3944227659       -1.0672793844       -0.6144487447
 C         -6.4288004481       -1.7320882348        0.0425432930
 C         -7.1517469370       -2.7108558011       -0.6114191022
 C         -6.8522144652       -3.0472919658       -1.9213169965
 C         -5.8224833933       -2.3922963560       -2.5767218280
 C         -5.0991232125       -1.4062154247       -1.9342206393
 C         -2.4945174237       -1.0660926213       -0.3634661682
 C         -1.1331727340       -0.9358872328       -0.5314162113
 C          1.7874086697       -0.4511076624       -0.0514772522
 C          3.1707115859       -0.3240945298       -0.1540411174
 H          5.3631390588       -2.2521851028        2.6284434907
 H          7.5882326990       -1.5612628902        3.4709175982
 H          8.8409756133        0.2258582532        2.3145031396
 H          7.8576113422        1.2953696738        0.2853965281
 H          3.2988372897        2.4107571574       -2.1270185916
 H          0.8314923961        2.1988313623       -1.9169757737
 H         -0.8805013495        2.4248380239       -0.3147005714
 H         -3.2979404034        2.1998417773       -0.0103515857
 H         -7.0837499752        0.9685019414       -0.2915945938
 H         -8.2449641263        2.4772327879        1.2654810115
 H         -7.1481970523        3.1828890532        3.3623548249
 H         -4.8824323055        2.3568596831        3.8944134586
 H         -3.7260952680        0.8351910799        2.3481474537
 H         -6.6582264458       -1.4770485800        1.0667840188
 H         -7.9499128480       -3.2194339251       -0.0911603123
 H         -7.4175663052       -3.8144426163       -2.4280132765
 H         -5.5858620159       -2.6441798486       -3.5999283307
 H         -4.3041381909       -0.8885109465       -2.4508831065
 H         -2.9491415415       -2.0455332387       -0.3735966065
 H         -0.5319179059       -1.8186958998       -0.6884196870
 H          1.3938288219       -1.2588745342        0.5476791394
  57
  -95.0560503293000       0.100254898626659      !
 O          3.5782600161       -1.7628670523        1.8891318972
 C          4.0260848805       -0.9244330598        1.1334965613
 C          5.4052604028       -0.3989844036        1.3093485000
 C          5.9982047494       -0.5320157268        2.5670833913
 C          7.2662934825       -0.0352437523        2.8031258819
 C          7.9675691348        0.5996910758        1.7885213797
 C          7.3967915173        0.7235025581        0.5313464922
 C          6.1282200900        0.2300845228        0.3030391759
 S          5.4511600870        0.3098978945       -1.3517723864
 O          5.8465678221        1.5435107681       -1.9755948334
 O          5.7874253253       -0.9151814576       -2.0273531300
 C          3.6921708995        0.3212260562       -1.0504578320
 C          2.8503851512        0.8901765573       -1.9854962133
 C          1.4802542272        0.8376306262       -1.8061779049
 C          0.9332229843        0.1936311244       -0.6928592472
 C         -0.5191258777        0.1244831662       -0.5025563332
 C         -1.3775636830       -0.0505894462       -1.5882626574
 C         -2.7426964049       -0.1094851992       -1.4136753112
 C         -3.3023237451        0.0119589566       -0.1390565116
 N         -4.6813598031       -0.0363803839        0.0388722481
 C         -5.2949580909        0.7244367156        1.0438668720
 C         -6.3758531016        0.2079109428        1.7569581403
 C         -6.9858622576        0.9639190712        2.7392201374
 C         -6.5259224488        2.2373189411        3.0319480020
 C         -5.4509666714        2.7540418693        2.3274345603
 C         -4.8405465103        2.0097777669        1.3366099658
 C         -5.4715428141       -0.8490858818       -0.7878999258
 C         -5.0254344501       -2.1131569513       -1.1706783825
 C         -5.8084546381       -2.9090449326       -1.9841904946
 C         -7.0459285729       -2.4640862044       -2.4195383367
 C         -7.4958397000       -1.2112495264       -2.0362800542
 C         -6.7165764836       -0.4045743830       -1.2296980661
 C         -2.4456385627        0.1836211420        0.9514112933
 C         -1.0812639084        0.2352950551        0.7695817894
 C          1.7987855989       -0.3787813635        0.2355354824
 C          3.1815321808       -0.3171795696        0.0744384638
 H          5.4391110386       -1.0291639082        3.3458800712
 H          7.7111792941       -0.1431050049        3.7809011891
 H          8.9559964894        0.9914627246        1.9738780818
 H          7.9145836737        1.2038370997       -0.2838649309
 H          3.2904678326        1.3790900358       -2.8404958837
 H          0.8276149947        1.3091624318       -2.5250361512
 H         -0.9683343176       -0.1608987318       -2.5813400011
 H         -3.3906320880       -0.2436471701       -2.2671066235
 H         -6.7303815639       -0.7882500283        1.5363121894
 H         -7.8212156736        0.5515668745        3.2854581263
 H         -7.0026347985        2.8236002952        3.8026493071
 H         -5.0901335948        3.7487518046        2.5438042995
 H         -4.0112883524        2.4205971062        0.7795453989
 H         -4.0654500275       -2.4658316561       -0.8229740137
 H         -5.4524905751       -3.8867880984       -2.2732661691
 H         -7.6559085719       -3.0897391664       -3.0531583138
 H         -8.4576053839       -0.8548855689       -2.3747461367
 H         -7.0649770541        0.5752636481       -0.9374675326
 H         -2.8614652333        0.2706410298        1.9441946059
 H         -0.4405818290        0.3829267605        1.6260001964
 H          1.4127686161       -0.9019817488        1.0977730110
  57
  -95.0560250130000       9.760476861854632E-002 !
 O          3.5270077734       -0.4287184160       -2.5524097452
 C          3.9783256585       -0.2917394627       -1.4340357169
 C          5.3359836728       -0.7872004486       -1.0888992061
 C          5.8810760371       -1.8055008068       -1.8738075981
 C          7.1246875092       -2.3309682688       -1.5772561477
 C          7.8478019124       -1.8471312344       -0.4969201446
 C          7.3248438483       -0.8243373833        0.2792544462
 C          6.0798721062       -0.3083243198       -0.0173295663
 S          5.4575922039        1.0794381812        0.9273875814
 O          5.8744847899        0.9574322547        2.2976952580
 O          5.8104172959        2.2850687227        0.2266034064
 C          3.6902838482        0.8544569700        0.8090347284
 C          2.8703980993        1.3257340186        1.8148397789
 C          1.4967074039        1.2076138568        1.6998832156
 C          0.9273546208        0.6382117504        0.5587726697
 C         -0.5264026493        0.4928509355        0.4259485653
 C         -1.3050940823        0.0924105492        1.5113807360
 C         -2.6631895592       -0.0973554446        1.3774042044
 C         -3.2926198663        0.1214599431        0.1496742180
 N         -4.6612536140       -0.0945320622        0.0079481608
 C         -5.4208622768        0.7237351872       -0.8396435860
 C         -5.1717696895        2.0940923732       -0.9032581357
 C         -5.9246095210        2.8990923470       -1.7359532278
 C         -6.9376706172        2.3558593297       -2.5089741660
 C         -7.1904231852        0.9953214802       -2.4466880636
 C         -6.4380678468        0.1806253103       -1.6228373612
 C         -5.2768279307       -1.1579273829        0.6820350645
 C         -6.5660893848       -1.0175852257        1.1935882769
 C         -7.1735057886       -2.0729877856        1.8460553103
 C         -6.5068824720       -3.2766141487        2.0066668823
 C         -5.2242383936       -3.4194371323        1.5034357224
 C         -4.6117655248       -2.3732004939        0.8415619679
 C         -2.5200005158        0.5507071776       -0.9320659117
 C         -1.1600281867        0.7236115389       -0.7949368847
 C          1.7701196902        0.1847530904       -0.4526665894
 C          3.1549679871        0.2746947545       -0.3360712816
 H          5.3052097928       -2.1700862989       -2.7113243080
 H          7.5336993880       -3.1197199725       -2.1905037484
 H          8.8178980188       -2.2591524113       -0.2644212939
 H          7.8624012494       -0.4164372933        1.1208533978
 H          3.3287228248        1.7752337025        2.6818890774
 H          0.8578727621        1.5788052110        2.4869553582
 H         -0.8351195114       -0.0974123993        2.4649919525
 H         -3.2511336617       -0.4190332336        2.2242839211
 H         -4.3888692509        2.5204624705       -0.2931034962
 H         -5.7242722913        3.9596294387       -1.7743151093
 H         -7.5262165642        2.9885949635       -3.1556117614
 H         -7.9741509722        0.5624638174       -3.0506647950
 H         -6.6304781347       -0.8815006288       -1.5822847963
 H         -7.0847249421       -0.0774504282        1.0759351834
 H         -8.1725531008       -1.9518608020        2.2379357504
 H         -6.9840357719       -4.0981972198        2.5187825084
 H         -4.6991272574       -4.3563121161        1.6176500459
 H         -3.6164679195       -2.4915324361        0.4386136817
 H         -2.9951237473        0.7312410597       -1.8848400990
 H         -0.5788250714        1.0536208194       -1.6427857557
 H          1.3623231240       -0.2747339773       -1.3409161456
  57
  -95.0559203403000       8.737089690467430E-002 !
 O          3.6267875025       -1.7306139218        1.9399301043
 C          4.0511841523       -0.9023612605        1.1602126644
 C          5.4079841950       -0.3191325249        1.3288002510
 C          5.9888073626       -0.3710523859        2.5980176770
 C          7.2335522119        0.1854638897        2.8248545369
 C          7.9232393163        0.7999074551        1.7898980234
 C          7.3651113962        0.8427793333        0.5217183853
 C          6.1196244888        0.2903174132        0.3025715458
 S          5.4587518594        0.2649335981       -1.3605518408
 O          5.8280629819        1.4742313969       -2.0446958630
 O          5.8331750854       -0.9844703905       -1.9674180768
 C          3.6979364686        0.2484013055       -1.0709801932
 C          2.8477732921        0.7682548391       -2.0264602964
 C          1.4787496518        0.7021690307       -1.8441071058
 C          0.9396942961        0.0882910964       -0.7096505672
 C         -0.5115457428        0.0179957304       -0.5133637931
 C         -1.3774654249       -0.1508754782       -1.5945661755
 C         -2.7429413186       -0.1865821157       -1.4165257888
 C         -3.2977783349       -0.0514725367       -0.1410404730
 N         -4.6755858075       -0.0613546946        0.0432971264
 C         -5.2605751336        0.6994920938        1.0666421773
 C         -6.3437685234        0.1942364992        1.7839001919
 C         -6.9265904593        0.9473047455        2.7847701236
 C         -6.4372373930        2.2066157323        3.0904928570
 C         -5.3610603390        2.7127859922        2.3802213801
 C         -4.7772068738        1.9711146975        1.3716006931
 C         -5.5048010508       -0.8111905378       -0.8047423523
 C         -5.1238473525       -2.0844340360       -1.2251016530
 C         -5.9488731544       -2.8160565106       -2.0574634560
 C         -7.1637281603       -2.2971748176       -2.4743991703
 C         -7.5489338171       -1.0349158269       -2.0536957085
 C         -6.7273178998       -0.2922725475       -1.2279705027
 C         -2.4334098349        0.1004643306        0.9467717087
 C         -1.0693141970        0.1342285589        0.7606532701
 C          1.8146921737       -0.4406199442        0.2363901461
 C          3.1961063776       -0.3579577784        0.0754122861
 H          5.4392558690       -0.8534066655        3.3926574820
 H          7.6695663455        0.1402287790        3.8114644280
 H          8.8936294297        1.2376861084        1.9678527926
 H          7.8750449128        1.3034977009       -0.3097787112
 H          3.2802117983        1.2333498303       -2.8985432732
 H          0.8208966609        1.1417528282       -2.5781273633
 H         -0.9748392767       -0.2710433798       -2.5891225709
 H         -3.3940930287       -0.3093689190       -2.2691630580
 H         -6.7213138941       -0.7907272475        1.5514010761
 H         -7.7633384089        0.5437896492        3.3354057207
 H         -6.8919500109        2.7902246232        3.8762925922
 H         -4.9776379658        3.6967373080        2.6068482093
 H         -3.9457657524        2.3726843771        0.8107842874
 H         -4.1819058512       -2.4947450263       -0.8916064025
 H         -5.6447058058       -3.8025363844       -2.3747638455
 H         -7.8066943288       -2.8732810193       -3.1221853583
 H         -8.4927078049       -0.6211397457       -2.3769711388
 H         -7.0249472042        0.6950003244       -0.9061359046
 H         -2.8435235341        0.1916806479        1.9415055284
 H         -0.4259311720        0.2732525522        1.6162740151
 H          1.4382193301       -0.9407505677        1.1163587783
  57
  -95.0558515009000       8.123260791587374E-002 !
 O          3.5916036643       -2.5010534196        0.4782812663
 C          4.0640839420       -1.4141773544        0.2057508184
 C          5.5265671336       -1.2682188710       -0.0149405713
 C          6.2676117800       -2.4374022656       -0.2138253519
 C          7.6323119198       -2.3837946944       -0.4206424246
 C          8.2887123282       -1.1615067199       -0.4329542785
 C          7.5681783618        0.0048597255       -0.2331504759
 C          6.2035173128       -0.0548561220       -0.0309939034
 S          5.3456291415        1.4762123576        0.3141057853
 O          5.4736947391        1.7484149171        1.7215296748
 O          5.7970755739        2.4908889834       -0.5987576170
 C          3.6371251477        1.0824210729       -0.0135146230
 C          2.7544786841        2.1297375554       -0.1927165238
 C          1.3998690949        1.8841289049       -0.3113844313
 C          0.9052393694        0.5778790347       -0.2420818932
 C         -0.5386311369        0.3305854748       -0.2807658388
 C         -1.1113145683       -0.6732045615        0.5021527350
 C         -2.4770730921       -0.8462369940        0.5524420714
 C         -3.3250176082       -0.0200363747       -0.1893607688
 N         -4.7077062404       -0.1388495692       -0.0968685103
 C         -5.5114437942        1.0090717045       -0.1643655059
 C         -5.0907752743        2.2024893316        0.4215566886
 C         -5.8845262600        3.3304170653        0.3492190580
 C         -7.1098939049        3.2852111843       -0.2953826062
 C         -7.5365866553        2.0991894193       -0.8697722488
 C         -6.7455275841        0.9678200807       -0.8107292266
 C         -5.3061692943       -1.3853873264        0.1341777152
 C         -6.3965937494       -1.4946061156        0.9959664063
 C         -6.9908332190       -2.7226440678        1.2123553045
 C         -6.5063834044       -3.8569889790        0.5817719474
 C         -5.4211203267       -3.7535606755       -0.2728311251
 C         -4.8240162772       -2.5286716357       -0.5010924383
 C         -2.7527920530        0.9504814710       -1.0167367936
 C         -1.3876951819        1.1248789227       -1.0534463491
 C          1.8139011203       -0.4652999756       -0.0867180807
 C          3.1841393150       -0.2316329266        0.0335098748
 H          5.7423807928       -3.3808411524       -0.1966982071
 H          8.1890311135       -3.2967423030       -0.5692644637
 H          9.3553437882       -1.1176740017       -0.5919928038
 H          8.0425385838        0.9737300833       -0.2327116523
 H          3.1511760809        3.1324925946       -0.2241145741
 H          0.7152113773        2.7110008432       -0.4218309680
 H         -0.4796700654       -1.2949258851        1.1182134495
 H         -2.9015793568       -1.6068778232        1.1906269334
 H         -4.1416547452        2.2362114223        0.9362667222
 H         -5.5472429199        4.2481598323        0.8079363007
 H         -7.7285664347        4.1680378231       -0.3475880884
 H         -8.4900258850        2.0557827499       -1.3751169958
 H         -7.0765722777        0.0456057354       -1.2653534211
 H         -6.7697403881       -0.6121684758        1.4948390425
 H         -7.8328372618       -2.7951409880        1.8847975894
 H         -6.9718090924       -4.8151762090        0.7554985462
 H         -5.0408581808       -4.6322278235       -0.7725576332
 H         -3.9838233062       -2.4476129645       -1.1752331433
 H         -3.3936128659        1.5712956694       -1.6252522806
 H         -0.9705790297        1.8726093613       -1.7113983871
 H          1.4754311793       -1.4905319454       -0.0604080173
