107
 energy: -152.564332889192 gnorm: 0.000045993785 xtb: 6.7.1 (edcfbbe)
C            2.37363117250167       -4.81990612146079       -1.90844912334294
C            1.11405309639246       -4.80135092334202       -2.78806305985647
C           -0.06685004000446       -5.41160286131244       -2.01755864618514
C            1.38199769789275       -5.67132141019104       -4.01981869467182
C            0.77743617067931       -3.36062774546910       -3.14380666515153
C            0.67876514524837       -2.90844175265057       -4.45624641514900
C            0.36670783902764       -1.59116646411766       -4.75752957970343
C            0.14872034746960       -0.69755632911644       -3.72481178059130
C            0.24252853346780       -1.14000429526698       -2.39840532406192
C            0.55327294010833       -2.44776503159675       -2.11010164859699
C           -0.00900534831700        0.00314249964491       -1.43002904334114
C            1.24435625012945        0.17915451077548       -0.59852608198010
C            2.26227315209052        1.03181566195271       -1.00779603091322
C            3.44039794992169        1.12395351776851       -0.29107136802409
C            3.62336935376968        0.35848543408955        0.85560985755226
N            4.82297629144086        0.44116518548648        1.58125915812535
C            5.62106001592293       -0.62549852288586        1.94152993064191
C            5.46700236143405       -1.97706624529959        1.66535174294843
C            6.43656175315460       -2.84533192171849        2.12916776368724
C            7.54202025099116       -2.38700800937230        2.84376909848145
C            7.71156147651557       -1.04155700465490        3.10375685367363
C            6.74950643300910       -0.14851191698105        2.64862106327158
C            6.61250696595672        1.27953768610232        2.71827521773305
C            7.37814676792501        2.28821610161114        3.28959495462480
C            6.93625732536732        3.59259148254386        3.18965209688578
C            5.74181587013667        3.89678193664965        2.53889184278396
C            4.96354950659316        2.91163364429271        1.96186358218517
C            5.41205070707326        1.60049922183113        2.04224899229821
C            2.60772791769986       -0.49598131555091        1.27319369192984
C            1.43610481445565       -0.58597582793846        0.54747453215690
C           -1.25447990801767       -0.17711568472446       -0.58771583194958
C           -1.43547107211625        0.58195614350160        0.56405026940512
C           -2.60045738306692        0.48836716013322        1.29996463310927
C           -3.62004399708063       -0.36375082465117        0.88725507913819
N           -4.81306251580242       -0.44994577548482        1.62331398216881
C           -5.39883245627960       -1.61150251673390        2.08283980029004
C           -4.95069400308593       -2.92216111518164        1.99317606665055
C           -5.72474916222089       -3.91011826582648        2.57108474155605
C           -6.91481092572382       -3.60920431318308        3.23135393578535
C           -7.35627339795767       -2.30539605691288        3.34031369129938
C           -6.59467650928485       -1.29391511787345        2.76856499529378
C           -6.73228494477426        0.13443045891098        2.70662491394378
C           -7.69140881460380        1.02516118398596        3.17236084054866
C           -7.52385782757411        2.37183461208098        2.91744173825624
C           -6.42316914768806        2.83370240455517        2.19777802658417
C           -5.45660344557212        1.96778175014866        1.72343949853278
C           -5.60863336487085        0.61491070410617        1.99428445529510
C           -3.44769445475343       -1.12340929272804       -0.26492762538571
C           -2.27623147187115       -1.02755924617271       -0.99200315062190
C           -0.26927712147530        1.15119196068864       -2.39024860958155
C           -0.58002785899779        2.45684176151478       -2.09252716780434
C           -0.81420295978407        3.37474942590077       -3.11954507067989
C           -1.15230829308514        4.81252926347929       -2.75346373513944
C            0.03270811162967        5.42229921780504       -1.98894251513049
C           -1.43265179004474        5.68819737013471       -3.97839678198822
C           -2.40508739202843        4.82243557921348       -1.86402356857390
C           -0.72404138489314        2.92999714361023       -4.43511585330605
C           -0.41191155753930        1.61494382462302       -4.74589015670046
C           -0.18513330124207        0.71601400354985       -3.71970464699043
H            2.65610479854297       -5.84594005728432       -1.68139058432015
H            3.20203119060131       -4.33995234002258       -2.42638898237566
H            2.21125402411356       -4.29779177277811       -0.96959109378283
H           -0.27126944534619       -4.86001135065897       -1.10370362343307
H            0.15294580828865       -6.44358055470339       -1.75160164811243
H           -0.96523685004514       -5.39820559015678       -2.63205127950632
H            0.50540523088411       -5.72500354193531       -4.66157378827218
H            1.62558143107922       -6.68332237740666       -3.70191205795511
H            2.22271277232754       -5.28815026728129       -4.59403103417840
H            0.84690544680147       -3.58655125766984       -5.27699502765129
H            0.29853193760217       -1.27298690214481       -5.78772982504424
H            0.61883671875587       -2.76155657128560       -1.07984693731206
H            2.13818891523854        1.62507296952064       -1.90148292999684
H            4.23109758905674        1.77814068399434       -0.62767518612877
H            4.62304468831619       -2.33861541678428        1.09755043130233
H            6.33820034860253       -3.90263783547146        1.92960570654325
H            8.27796356147661       -3.09764928330001        3.19080874152201
H            8.57549060162770       -0.68610323395880        3.64562173377652
H            8.29738739531246        2.05214169044731        3.80494838864092
H            7.51800949748685        4.39136265681167        3.62620293725122
H            5.41577494002383        4.92567954515745        2.48790773477003
H            4.03297143433762        3.15485124751419        1.47144660547767
H            2.73868706746100       -1.08121576629522        2.17145627381797
H            0.65311185820868       -1.24818383041924        0.88701939305159
H           -0.64914990371177        1.24210508850868        0.89993232804729
H           -2.72315733336739        1.06894755320907        2.20240097768573
H           -4.02343539261344       -3.16286445372088        1.49528874886547
H           -5.39879704768148       -4.93868647289772        2.51323254906943
H           -7.49342596087297       -4.41009459166052        3.66819003510776
H           -8.27199426338526       -2.07190158727040        3.86305757607726
H           -8.55165246500204        0.66701599919606        3.71829189636752
H           -8.25756026840398        3.08070254023342        3.27274547594540
H           -6.32630141146052        3.89194852447882        2.00250902599606
H           -4.61652053004117        2.33210898988615        1.15169128344118
H           -4.24148257278419       -1.77590832647575       -0.59755168823443
H           -2.16028562876613       -1.61624435223205       -1.88978545398488
H           -0.63829908239124        2.76499597522666       -1.06013242655713
H            0.92632783976482        5.41491118422873       -2.61047666538051
H           -0.18812301512699        6.45216826244497       -1.71575504602877
H            0.24592538627510        4.86645654453375       -1.07967807911272
H           -0.56120131163455        5.74838733647888       -4.62651126599755
H           -2.27642414318014        5.30519407011459       -4.54822639127672
H           -1.67728153886756        6.69760517266707       -3.65313959053633
H           -3.23595499767048        4.34258822926631       -2.37808808447164
H           -2.23377238237296        4.29586373806612       -0.92926617146484
H           -2.68902991441487        5.84633365523372       -1.62929512203562
H           -0.89949969872607        3.61219460941016       -5.25093563056123
H           -0.35086905320080        1.30248664358119       -5.77828582142960
