107
 energy: -152.455665757621 gnorm: 0.000152478368 xtb: 6.7.1 (edcfbbe)
C            2.38525057072484       -4.92920468529676       -1.57910483121395
C            1.13067970805273       -4.95564885272501       -2.47064068740141
C           -0.05481425969386       -5.51802483619195       -1.66531752870856
C            1.40231501384680       -5.90307486048234       -3.64319572682031
C            0.80202616839721       -3.54638489954272       -2.91093366259268
C            0.70342095413005       -3.16320657413259       -4.27339274375138
C            0.39430224901937       -1.89398431166220       -4.66118274400571
C            0.15508379718055       -0.89239956973231       -3.66943673262511
C            0.25740635761312       -1.28425956500270       -2.27696926479013
C            0.57349668001945       -2.55549613159585       -1.92419877309222
C           -0.00109410174000       -0.08418944292761       -1.38401898539313
C            1.25438950858636        0.13558808596230       -0.56805323480271
C            2.28438045116840        0.93476894680456       -1.05250279768625
C            3.46978337773745        1.06322583254727       -0.35571843591233
C            3.65055430448520        0.38623240848666        0.84669134580757
N            4.85437713080341        0.51008272581127        1.55764794311728
C            5.63288236375373       -0.53564333021685        2.00985890111786
C            5.45820932861033       -1.90277842777803        1.84368486949860
C            6.41322876715846       -2.74540035101272        2.38009808355599
C            7.52295298649148       -2.24743147218818        3.06037429308503
C            7.71392929599700       -0.88737547245933        3.20949434593491
C            6.76811308227558       -0.02007842042362        2.67833566028154
C            6.65753968323756        1.41148223654150        2.62286542063386
C            7.44220811908936        2.45112577501492        3.10464946986725
C            7.02731441898173        3.75042898028864        2.88542507973439
C            5.83950331167347        4.01914194418855        2.20790106636726
C            5.04147711055033        3.00194688734686        1.71961152125377
C            5.46403228231222        1.69442035208537        1.91752495359736
C            2.62591126859371       -0.41992508914053        1.33666087786198
C            1.44640647403413       -0.54537162906184        0.63089763506751
C           -1.25366868515662       -0.20562426149922       -0.54305838246166
C           -1.44053477811276        0.60889885965646        0.57034550840208
C           -2.61855040793870        0.56859706749634        1.28858247875907
C           -3.64664309274851       -0.28538878597693        0.89689477523740
N           -4.85036670056241       -0.32184998861568        1.61779546220499
C           -5.46567859791411       -1.45576625868134        2.10707213726953
C           -5.04353915284045       -2.77764763695083        2.06581048207740
C           -5.84465379248239       -3.73018930110016        2.66646356674950
C           -7.03522039517703       -3.38327888211006        3.30237282650218
C           -7.45067338267284       -2.06724763900202        3.36426470692352
C           -6.66215960867619       -1.09148234643624        2.76854545523641
C           -6.76820487918979        0.33736796767865        2.66027699578082
C           -7.71219167954574        1.26215496797499        3.08746748331778
C           -7.51189352456343        2.59698770991836        2.79330604740238
C           -6.39438281429149        3.01245891056195        2.07163471540182
C           -5.44239067472865        2.11120792189443        1.63431635616423
C           -5.62670034294337        0.77096489714030        1.94571508569271
C           -3.47051455655096       -1.09726627058142       -0.21979570853161
C           -2.28670933062828       -1.05296538706161       -0.92939346544874
C           -0.26546286701785        1.00176577274172       -2.41113896588753
C           -0.57949816243438        2.30601900811674       -2.20928523857460
C           -0.81695277582751        3.17272214308816       -3.30476967684960
C           -1.14548899195139        4.62385760231546       -3.03223830204408
C            0.03908322462777        5.27802204162765       -2.29805716893097
C           -1.41764855314801        5.42778390066994       -4.30735760770200
C           -2.40001605582291        4.70047341275201       -2.14357905549016
C           -0.73020755740012        2.63009550399848       -4.61280502463959
C           -0.42387011783586        1.32360440256481       -4.84963720049072
C           -0.17480380067966        0.44708901441766       -3.74797960138233
H            2.65620917401566       -5.94184555103174       -1.28722588170625
H            3.22094888478207       -4.48845135609236       -2.11950980358989
H            2.21911115966766       -4.34821635095371       -0.67628826271541
H            0.17094341516776       -6.52610358390106       -1.32337309526595
H           -0.94733423903962       -5.55538820351730       -2.28715335898288
H           -0.27051252196740       -4.90150086491172       -0.79677237962285
H            0.52958940444963       -5.99337514700557       -4.28616100901061
H            1.63929879964280       -6.89404176478226       -3.26057704445386
H            2.24815580130946       -5.56021489546797       -4.23520582414256
H            0.88142763516653       -3.90130006636304       -5.03916018456118
H            0.33471962302565       -1.63097340730540       -5.70679366282752
H            0.64332837345998       -2.81618642754345       -0.87889254014422
H            2.15711392057474        1.45645838784224       -1.98977072482266
H            4.26892778056422        1.67390528886703       -0.74902451862724
H            4.61093809407677       -2.29597675010331        1.30272337799654
H            6.29948515943239       -3.81364202535962        2.26548644693902
H            8.24641012477097       -2.93845464094939        3.46775775195317
H            8.58238014631273       -0.50252342407662        3.72306477623221
H            8.35575110649741        2.24381240963400        3.64177182560617
H            7.62533802740931        4.57304788778477        3.24946036789754
H            5.53443008399899        5.04545135189406        2.06377972666335
H            4.11596740173013        3.21912181402049        1.20800386567609
H            2.75560582653528       -0.93356290113511        2.27794974509077
H            0.65537001255080       -1.16658232694030        1.02515864844203
H           -0.64705991280102        1.26932702093807        0.88880611579793
H           -2.74450946340566        1.18694796098478        2.16513835187570
H           -4.11588614908594       -3.05354363629367        1.58754285306165
H           -5.53959408435696       -4.76637649914661        2.64589225184293
H           -7.63505473085454       -4.15721908697041        3.75851633228139
H           -8.36651418791083       -1.79809476481068        3.86907694323510
H           -8.58581886148469        0.93998564959319        3.63433769471441
H           -8.23343955829901        3.33215311756373        3.11854140330790
H           -6.27209030846278        4.06161240991963        1.84483537359012
H           -4.58953065822664        2.43909418441879        1.05979122180313
H           -4.27197956419321       -1.74739971986299       -0.53827634693898
H           -2.16300240675645       -1.67922076261282       -1.80080300903463
H           -0.64136095395344        2.68871793937906       -1.20172982167291
H            0.93278634178058        5.23992099782752       -2.91815952520768
H           -0.18665255647732        6.31999601496901       -2.08045470249552
H            0.25262351782235        4.77094155685366       -1.36092971968019
H           -0.54620234325381        5.43946011794861       -4.95828858756541
H           -2.26578582009949        5.02026188996472       -4.85328424049753
H           -1.65144933322934        6.45745247074298       -4.04331523400589
H           -3.23677225137453        4.20355218406687       -2.63102395163731
H           -2.23465774578951        4.22388649228245       -1.18144595633771
H           -2.66891801994529        5.74002481629054       -1.96730999822009
H           -0.91610681333680        3.27195154850412       -5.45918254061476
H           -0.37364695602556        0.93812669756048       -5.85707051088531
