  60
       -108.03013302
 O          6.5713515259       -0.0433347594       -1.3464383403
 C          5.7357968450       -0.9127784611       -1.3779427280
 O          6.0602603666       -2.2115240572       -1.2613219398
 C          4.2862832089       -0.6808789692       -1.5445061997
 C          3.3703392022       -1.7296677513       -1.5500363388
 C          2.0230889081       -1.4678265902       -1.7012510214
 C          1.5620976066       -0.1622804805       -1.8432679627
 C          0.0954356459        0.1287331291       -1.9692166781
 C         -0.6313391357        0.1699715246       -0.5928046139
 C         -0.7141238625       -1.2020268653        0.0653000358
 C         -1.0869135379       -2.3147267955       -0.6873103560
 C         -1.2240362331       -3.5565496323       -0.1037957646
 C         -1.0114191252       -3.7179568741        1.2628715373
 C         -1.1568997509       -5.0660319217        1.8504703695
 O         -1.4491305262       -6.0566380670        1.2283987150
 O         -0.9282414449       -5.0992748617        3.1730369486
 C         -0.6920522018       -2.6050699400        2.0332902692
 C         -0.5564802986       -1.3653280193        1.4392236476
 C          0.1326918107        1.2026609749        0.2193180252
 C          1.3223862273        0.8685249070        0.8642044835
 C          2.0715489902        1.8281346426        1.5153586972
 C          1.6500513801        3.1544380859        1.5229137933
 C          2.4239341639        4.2175809784        2.1985183721
 O          2.1153276239        5.3835129679        2.2165486103
 O          3.5300673064        3.7651048246        2.8092823603
 C          0.4741702024        3.5003343504        0.8623838933
 C         -0.2693850052        2.5351980075        0.2138391307
 C         -2.0988793769        0.5637119197       -0.7333974952
 C         -2.8233693841        0.8102406257        0.4335480370
 C         -4.1626188930        1.1331986021        0.3906620083
 C         -4.8182411579        1.2092761728       -0.8361199332
 C         -6.2525945674        1.5508265557       -0.9396046860
 O         -6.8662094929        1.6245403803       -1.9750809229
 O         -6.8339892705        1.7788991935        0.2488192016
 C         -4.1061902429        0.9569450409       -2.0039004420
 C         -2.7626871649        0.6369195454       -1.9523203803
 C          2.4860432196        0.8795795906       -1.8516504722
 C          3.8338267302        0.6272277436       -1.7036972417
 H          7.0207723308       -2.2981124997       -1.1589937662
 H          3.7204229889       -2.7434534292       -1.4357583337
 H          1.3205843627       -2.2878468609       -1.7025649085
 H         -0.0340690658        1.1080276371       -2.4346684650
 H         -0.3601220849       -0.6246330534       -2.6101507809
 H         -1.2905004757       -2.2175653571       -1.7426145006
 H         -1.5018481487       -4.4187565835       -0.6907620621
 H         -1.0389418383       -6.0052981059        3.5004820163
 H         -0.5548656962       -2.7148792540        3.0974396908
 H         -0.3262247969       -0.5157986895        2.0635678133
 H          1.6735509991       -0.1521164619        0.8542599578
 H          2.9903309266        1.5566058225        2.0100508843
 H          3.9992983059        4.5046126961        3.2257102456
 H          0.1636262432        4.5339184356        0.8624014598
 H         -1.1709456117        2.8230657455       -0.3062514911
 H         -2.3231501325        0.7537960923        1.3885404577
 H         -4.7083330085        1.3264419483        1.3004818509
 H         -7.7697215714        1.9967583113        0.1168986860
 H         -4.6238236249        1.0177757212       -2.9491701184
 H         -2.2448191623        0.4536616705       -2.8796629171
 H          2.1417629935        1.8966373324       -1.9713013366
 H          4.5557747087        1.4293041140       -1.7046449218
