  82
       -122.73568106
 C         -3.6701391812       -4.7622182735       -1.7937121555
 C         -2.3128886344       -4.6145459246       -1.5360016978
 C         -1.7926348165       -3.3712811985       -1.2522896518
 C         -2.6240624698       -2.2439712998       -1.2001633588
 C         -2.0215420914       -0.9668160978       -0.9112875837
 N         -0.7632299063       -0.7417393344       -1.2420017403
 C         -0.4725982144        0.5341137917       -0.9602397967
 C          0.8446371181        1.0225110457       -1.0501782134
 C          1.3345589407        2.1898991196       -0.4088502710
 C          2.6565631839        2.5312798423       -0.5015073791
 C          3.5676016843        1.7533943667       -1.2355257584
 O          4.8493738411        2.2025036104       -1.2246677879
 C          5.8749169524        1.4609359498       -1.8483419739
 C          6.2631594970        0.1604317849       -1.1348959476
 C          6.5646358091        0.3414699050        0.3561400157
 C          5.3158484369        0.2531140579        1.2406222206
 C          4.5134468159       -1.0143365250        1.0831893171
 C          5.0879960083       -2.2358408907        0.7623220265
 C          4.3406481674       -3.4049443121        0.6450840377
 C          2.9787739003       -3.4072772447        0.8642970299
 C          2.3697573155       -2.2077425359        1.2060633141
 C          3.1357915516       -1.0221582139        1.3023162637
 N          2.3051464302        0.0053804398        1.6804235086
 C          1.0284512207       -0.4673105924        1.8204067850
 C         -0.1262821003        0.1984068212        2.2048592226
 C         -1.2884672533       -0.5406012592        2.3124335101
 C         -1.3061113029       -1.9079109411        2.0432124612
 C         -0.1601759484       -2.5752169505        1.6593597206
 C          1.0194536487       -1.8541646283        1.5430482575
 C          3.0982098317        0.6004619469       -1.8802905012
 C          1.7826057115        0.2403891199       -1.7732609510
 N         -1.6280959328        1.2058144578       -0.5024354264
 C         -1.7222119153        2.5578719618       -0.1912429846
 C         -2.2860197671        2.9822765685        1.0170210551
 C         -2.3714610529        4.3291622409        1.3012240901
 C         -1.9057076487        5.2733760071        0.3964703621
 C         -1.3473791629        4.8563702070       -0.8041616464
 C         -1.2545322256        3.5129891156       -1.1020539460
 C         -2.6257053462        0.2507421204       -0.3945735625
 C         -3.9487757478        0.4726882262        0.0539111130
 C         -4.6386676267       -0.5503042048        0.7538799793
 C         -5.9167737711       -0.3530441505        1.2136330528
 C         -6.5733356871        0.8555849693        0.9930391889
 C         -5.9207684277        1.8660591327        0.2915209527
 C         -4.6373680314        1.6920594634       -0.1650098329
 C         -3.9843129110       -2.3981318130       -1.4962744018
 C         -4.4950105371       -3.6479090916       -1.7852544720
 H         -4.0788175458       -5.7373435196       -2.0129914348
 H         -1.6650930471       -5.4789266116       -1.5578039137
 H         -0.7429781272       -3.2335935768       -1.0488113995
 H          0.6813685673        2.7904680447        0.2005216591
 H          3.0345436425        3.4104894317       -0.0003411124
 H          6.7277153660        2.1468049700       -1.8441427819
 H          5.6107759345        1.2454399761       -2.8923596915
 H          7.1503522471       -0.2184179685       -1.6465173890
 H          5.4723187865       -0.5813753392       -1.2421296766
 H          7.0343545358        1.3141849987        0.5170866186
 H          7.2809988803       -0.4190460765        0.6698803633
 H          4.6744545274        1.1088252651        1.0305496292
 H          5.6316149583        0.3358271528        2.2868264477
 H          6.1527277132       -2.2946881807        0.5985724076
 H          4.8457655049       -4.3237599037        0.3857047151
 H          2.4013488048       -4.3153699026        0.7835996525
 H          2.5657143173        0.9743604877        1.7352530646
 H         -0.1148475912        1.2580831254        2.4153647301
 H         -2.2046670249       -0.0559200857        2.6172622266
 H         -2.2321857586       -2.4544583141        2.1448027238
 H         -0.1803355497       -3.6360375720        1.4612477169
 H          3.7624197951       -0.0124304744       -2.4676940769
 H          1.4190725490       -0.6537384184       -2.2519680735
 H         -2.6426997305        2.2498183528        1.7232081339
 H         -2.8013248997        4.6489626857        2.2392545504
 H         -1.9787093987        6.3256128177        0.6242399025
 H         -0.9898734972        5.5863392664       -1.5153080447
 H         -0.8282340847        3.1842502475       -2.0379801030
 H         -4.1247306633       -1.4755804816        0.9580918605
 H         -6.4155966821       -1.1400193184        1.7612584414
 H         -7.5771638369        1.0060663600        1.3588476023
 H         -6.4324854507        2.7979570893        0.0968862612
 H         -4.1689056783        2.4697177055       -0.7465579816
 H         -4.6287272349       -1.5343409551       -1.5307429710
 H         -5.5456390668       -3.7541952780       -2.0137317343
