  82
  -122.735681060000       0.296472055800411      !
 C         -3.6701391812       -4.7622182735       -1.7937121555
 C         -2.3128886344       -4.6145459246       -1.5360016978
 C         -1.7926348165       -3.3712811985       -1.2522896518
 C         -2.6240624698       -2.2439712998       -1.2001633588
 C         -2.0215420914       -0.9668160978       -0.9112875837
 N         -0.7632299063       -0.7417393344       -1.2420017403
 C         -0.4725982144        0.5341137917       -0.9602397967
 C          0.8446371181        1.0225110457       -1.0501782134
 C          1.3345589407        2.1898991196       -0.4088502710
 C          2.6565631839        2.5312798423       -0.5015073791
 C          3.5676016843        1.7533943667       -1.2355257584
 O          4.8493738411        2.2025036104       -1.2246677879
 C          5.8749169524        1.4609359498       -1.8483419739
 C          6.2631594970        0.1604317849       -1.1348959476
 C          6.5646358091        0.3414699050        0.3561400157
 C          5.3158484369        0.2531140579        1.2406222206
 C          4.5134468159       -1.0143365250        1.0831893171
 C          5.0879960083       -2.2358408907        0.7623220265
 C          4.3406481674       -3.4049443121        0.6450840377
 C          2.9787739003       -3.4072772447        0.8642970299
 C          2.3697573155       -2.2077425359        1.2060633141
 C          3.1357915516       -1.0221582139        1.3023162637
 N          2.3051464302        0.0053804398        1.6804235086
 C          1.0284512207       -0.4673105924        1.8204067850
 C         -0.1262821003        0.1984068212        2.2048592226
 C         -1.2884672533       -0.5406012592        2.3124335101
 C         -1.3061113029       -1.9079109411        2.0432124612
 C         -0.1601759484       -2.5752169505        1.6593597206
 C          1.0194536487       -1.8541646283        1.5430482575
 C          3.0982098317        0.6004619469       -1.8802905012
 C          1.7826057115        0.2403891199       -1.7732609510
 N         -1.6280959328        1.2058144578       -0.5024354264
 C         -1.7222119153        2.5578719618       -0.1912429846
 C         -2.2860197671        2.9822765685        1.0170210551
 C         -2.3714610529        4.3291622409        1.3012240901
 C         -1.9057076487        5.2733760071        0.3964703621
 C         -1.3473791629        4.8563702070       -0.8041616464
 C         -1.2545322256        3.5129891156       -1.1020539460
 C         -2.6257053462        0.2507421204       -0.3945735625
 C         -3.9487757478        0.4726882262        0.0539111130
 C         -4.6386676267       -0.5503042048        0.7538799793
 C         -5.9167737711       -0.3530441505        1.2136330528
 C         -6.5733356871        0.8555849693        0.9930391889
 C         -5.9207684277        1.8660591327        0.2915209527
 C         -4.6373680314        1.6920594634       -0.1650098329
 C         -3.9843129110       -2.3981318130       -1.4962744018
 C         -4.4950105371       -3.6479090916       -1.7852544720
 H         -4.0788175458       -5.7373435196       -2.0129914348
 H         -1.6650930471       -5.4789266116       -1.5578039137
 H         -0.7429781272       -3.2335935768       -1.0488113995
 H          0.6813685673        2.7904680447        0.2005216591
 H          3.0345436425        3.4104894317       -0.0003411124
 H          6.7277153660        2.1468049700       -1.8441427819
 H          5.6107759345        1.2454399761       -2.8923596915
 H          7.1503522471       -0.2184179685       -1.6465173890
 H          5.4723187865       -0.5813753392       -1.2421296766
 H          7.0343545358        1.3141849987        0.5170866186
 H          7.2809988803       -0.4190460765        0.6698803633
 H          4.6744545274        1.1088252651        1.0305496292
 H          5.6316149583        0.3358271528        2.2868264477
 H          6.1527277132       -2.2946881807        0.5985724076
 H          4.8457655049       -4.3237599037        0.3857047151
 H          2.4013488048       -4.3153699026        0.7835996525
 H          2.5657143173        0.9743604877        1.7352530646
 H         -0.1148475912        1.2580831254        2.4153647301
 H         -2.2046670249       -0.0559200857        2.6172622266
 H         -2.2321857586       -2.4544583141        2.1448027238
 H         -0.1803355497       -3.6360375720        1.4612477169
 H          3.7624197951       -0.0124304744       -2.4676940769
 H          1.4190725490       -0.6537384184       -2.2519680735
 H         -2.6426997305        2.2498183528        1.7232081339
 H         -2.8013248997        4.6489626857        2.2392545504
 H         -1.9787093987        6.3256128177        0.6242399025
 H         -0.9898734972        5.5863392664       -1.5153080447
 H         -0.8282340847        3.1842502475       -2.0379801030
 H         -4.1247306633       -1.4755804816        0.9580918605
 H         -6.4155966821       -1.1400193184        1.7612584414
 H         -7.5771638369        1.0060663600        1.3588476023
 H         -6.4324854507        2.7979570893        0.0968862612
 H         -4.1689056783        2.4697177055       -0.7465579816
 H         -4.6287272349       -1.5343409551       -1.5307429710
 H         -5.5456390668       -3.7541952780       -2.0137317343
  82
  -122.735295220000       0.197089722550183      !
 C         -3.5149165684       -4.8326719140       -1.8870275041
 C         -2.1654563061       -4.6655314718       -1.6010568604
 C         -1.6735880996       -3.4185258915       -1.2848048100
 C         -2.5264977574       -2.3070083098       -1.2268093845
 C         -1.9487253254       -1.0251370056       -0.9098530131
 N         -0.6923556546       -0.7795480209       -1.2338282222
 C         -0.4175273819        0.4933801253       -0.9298931525
 C          0.8944930781        0.9970913770       -1.0261951186
 C          1.3898761548        2.1365404307       -0.3424520107
 C          2.7107951120        2.4822507003       -0.4370491510
 C          3.6116122653        1.7380556888       -1.2164425853
 O          4.8993964893        2.1696847648       -1.1823079946
 C          5.9175513211        1.4408540333       -1.8332222426
 C          6.2537852720        0.0796450048       -1.2121662957
 C          6.5624652338        0.1319242653        0.2867881374
 C          5.3111468893        0.1131575907        1.1711880776
 C          4.3807742753       -1.0537997133        0.9503592804
 C          4.8024092007       -2.2883921170        0.4794954990
 C          3.9283200806       -3.3595523458        0.3074778904
 C          2.5906025154       -3.2502531915        0.6249106764
 C          2.1346616613       -2.0374726453        1.1226677204
 C          3.0259234041       -0.9489324814        1.2669874790
 N          2.3356949306        0.1138345319        1.7976175680
 C          1.0290977115       -0.2426865779        1.9954728707
 C         -0.0190478734        0.4922745636        2.5304488786
 C         -1.2360601138       -0.1437444391        2.6817172727
 C         -1.4129292977       -1.4728759376        2.3039162500
 C         -0.3768868991       -2.2047184802        1.7583969293
 C          0.8564740850       -1.5895008195        1.5991317851
 C          3.1302510705        0.6268417200       -1.9218612979
 C          1.8175464472        0.2583439131       -1.8092426415
 N         -1.5782066688        1.1438072619       -0.4568679714
 C         -1.6820085877        2.4953106650       -0.1476260942
 C         -2.2844622289        2.9220993975        1.0408714279
 C         -2.3706254091        4.2687477331        1.3251507999
 C         -1.8671589461        5.2123961909        0.4400399671
 C         -1.2731306918        4.7936926146       -0.7424779990
 C         -1.1804958380        3.4503539566       -1.0408845139
 C         -2.5680746657        0.1768707353       -0.3730527758
 C         -3.9028008713        0.3743426848        0.0500785853
 C         -4.6006432252       -0.6753090292        0.7014096778
 C         -5.8940865827       -0.5069902149        1.1282361957
 C         -6.5605366835        0.6983439822        0.9198559961
 C         -5.9012521539        1.7346066406        0.2636836545
 C         -4.6026475917        1.5895460703       -0.1585578995
 C         -3.8778969586       -2.4802284402       -1.5524152817
 C         -4.3598175654       -3.7333948778       -1.8741877458
 H         -3.9012374666       -5.8108344924       -2.1319746900
 H         -1.5011409267       -5.5173048788       -1.6281054662
 H         -0.6286446967       -3.2646095069       -1.0675983027
 H          0.7426611182        2.7049117504        0.3034942164
 H          3.0968038265        3.3359265052        0.1009964848
 H          6.7891549641        2.0989573004       -1.7636417021
 H          5.6704681925        1.3072976271       -2.8952601685
 H          7.1275731923       -0.2943297585       -1.7503212271
 H          5.4352035657       -0.6203047913       -1.3734392206
 H          7.1293967519        1.0385738742        0.5097214179
 H          7.1965566576       -0.7175754148        0.5459689176
 H          4.7584459552        1.0401351487        1.0176734485
 H          5.6353809615        0.1021440251        2.2183505985
 H          5.8434245941       -2.4399556287        0.2400599077
 H          4.3165912696       -4.2931159388       -0.0725278010
 H          1.9172436191       -4.0847902964        0.5031180458
 H          2.7048156418        1.0387900261        1.9294941059
 H          0.1138909780        1.5228212344        2.8268423235
 H         -2.0693903425        0.3921199853        3.1126876082
 H         -2.3758418557       -1.9370738389        2.4545953080
 H         -0.5217117655       -3.2348986319        1.4720130381
 H          3.7818426211        0.0536961088       -2.5611576589
 H          1.4460276164       -0.6082696560       -2.3306200742
 H         -2.6706840384        2.1906057115        1.7312017442
 H         -2.8306667730        4.5890263064        2.2487266151
 H         -1.9393782040        6.2645233141        0.6686923428
 H         -0.8897150412        5.5224260176       -1.4414217158
 H         -0.7286151841        3.1231367745       -1.9651416643
 H         -4.0829736192       -1.6011048199        0.8927714098
 H         -6.3985542487       -1.3156796313        1.6378359972
 H         -7.5775567755        0.8254194500        1.2569091591
 H         -6.4204982780        2.6636506211        0.0756777889
 H         -4.1295473253        2.3877031251       -0.7075049271
 H         -4.5368929278       -1.6272890893       -1.5841033656
 H         -5.4037084713       -3.8541297470       -2.1255073659
  82
  -122.735202470000       0.178664813104074      !
 C         -3.4482566885       -4.8988260579       -1.9905386338
 C         -2.1007341862       -4.7199505457       -1.7023778882
 C         -1.6221138551       -3.4693369634       -1.3806071891
 C         -2.4858203631       -2.3662775582       -1.3193351743
 C         -1.9207847176       -1.0824313685       -0.9883267293
 N         -0.6699081450       -0.8152966043       -1.3160112084
 C         -0.4044001007        0.4492566620       -0.9727154621
 C          0.9083685130        0.9570371245       -1.0410961106
 C          1.4045596630        2.0481411896       -0.2847931769
 C          2.7315069725        2.3786414277       -0.3368686935
 C          3.6346471021        1.6716931486       -1.1474432847
 O          4.9300675093        2.0704162060       -1.0544934432
 C          5.9455529305        1.3881162369       -1.7590356100
 C          6.2476345648       -0.0367531736       -1.2799931319
 C          6.6025058017       -0.1494839684        0.2043150555
 C          5.3881264263       -0.0928205600        1.1364760780
 C          4.3085685469       -1.1108168309        0.8634579607
 C          4.5353872124       -2.3308677498        0.2452594581
 C          3.5137028711       -3.2510793314        0.0180636477
 C          2.2187911002       -3.0006928861        0.4210367186
 C          1.9559040016       -1.8018425150        1.0691441454
 C          2.9981358428       -0.8689994473        1.2767256927
 N          2.4925367490        0.2072421075        1.9628298738
 C          1.1586770337        0.0114404293        2.2001740671
 C          0.2562815663        0.8146600048        2.8806748547
 C         -1.0340220566        0.3446509048        3.0296893775
 C         -1.4248348095       -0.8838253418        2.5009098071
 C         -0.5310397238       -1.6844978505        1.8162321697
 C          0.7755046175       -1.2400425451        1.6640585192
 C          3.1467108821        0.6260121366       -1.9423995138
 C          1.8291893980        0.2653703246       -1.8673330890
 N         -1.5673500734        1.0768813638       -0.4767897221
 C         -1.6780842545        2.4185471975       -0.1321862535
 C         -2.3124682758        2.8107354504        1.0516162147
 C         -2.4031849959        4.1481126977        1.3743034289
 C         -1.8756359993        5.1170527968        0.5314495830
 C         -1.2528329650        4.7327205694       -0.6477673799
 C         -1.1526339028        3.3986787238       -0.9834230990
 C         -2.5483189329        0.0989886605       -0.4152657537
 C         -3.8844759183        0.2640190865        0.0154467566
 C         -4.5606840633       -0.8129040168        0.6459651926
 C         -5.8573553513       -0.6787326067        1.0751271363
 C         -6.5477357352        0.5169137265        0.8898110152
 C         -5.9087759257        1.5801949383        0.2564622641
 C         -4.6075775431        1.4699184764       -0.1674889453
 C         -3.8354438267       -2.5514203650       -1.6465825260
 C         -4.3040530986       -3.8078878528       -1.9743423366
 H         -3.8246087690       -5.8797478179       -2.2396315400
 H         -1.4282165799       -5.5651945456       -1.7301037625
 H         -0.5791106042       -3.3056427614       -1.1601188794
 H          0.7537303753        2.5808877705        0.3877666030
 H          3.1204386662        3.1900231911        0.2609957227
 H          6.8285184820        2.0180755407       -1.6128520529
 H          5.7110170592        1.3667178778       -2.8321848264
 H          7.0924488100       -0.3869184394       -1.8777619322
 H          5.3983557538       -0.6869715111       -1.4828820303
 H          7.2848709749        0.6588779293        0.4774384600
 H          7.1339285463       -1.0895198451        0.3643715744
 H          4.9523050796        0.9054480008        1.0795979796
 H          5.7426360286       -0.2313550551        2.1645821623
 H          5.5344093203       -2.5948679547       -0.0657755426
 H          3.7527107165       -4.1826111854       -0.4739162461
 H          1.4335821033       -3.7219407802        0.2552136484
 H          3.0002905843        1.0435291343        2.1891999043
 H          0.5542030935        1.7693766867        3.2893808754
 H         -1.7531256434        0.9364633776        3.5770715433
 H         -2.4439096480       -1.2118579735        2.6411157468
 H         -0.8388203830       -2.6374829869        1.4140743968
 H          3.7961891189        0.0963658932       -2.6201270270
 H          1.4538311567       -0.5582542009       -2.4518478337
 H         -2.7166952872        2.0584976505        1.7080584325
 H         -2.8881553868        4.4417223125        2.2939388656
 H         -1.9528466059        6.1621056779        0.7893507145
 H         -0.8492706114        5.4812550318       -1.3137308696
 H         -0.6785135420        3.0994056376       -1.9060423049
 H         -4.0248330837       -1.7323274942        0.8205648128
 H         -6.3453581979       -1.5067591161        1.5695173519
 H         -7.5668809844        0.6172095099        1.2296063039
 H         -6.4460136096        2.5030870248        0.0896885186
 H         -4.1473608514        2.2895958965       -0.6954685444
 H         -4.5022142289       -1.7044888179       -1.6751233133
 H         -5.3465222760       -3.9383210402       -2.2266168733
  82
  -122.735195850000       0.177417595084676      !
 C         -3.4881000721       -4.8836476184       -1.9111428609
 C         -2.1366873872       -4.7066893118       -1.6392694725
 C         -1.6506461302       -3.4562289566       -1.3288146085
 C         -2.5106212848       -2.3496691249       -1.2628101846
 C         -1.9389771085       -1.0673468299       -0.9408930716
 N         -0.6820019543       -0.8142440406       -1.2603489397
 C         -0.4107166837        0.4531405817       -0.9370601907
 C          0.9021268546        0.9614295044       -1.0132503198
 C          1.3907066716        2.0723254270       -0.2814603851
 C          2.7124668065        2.4203725679       -0.3514221345
 C          3.6180501286        1.7094822934       -1.1554357174
 O          4.9065094733        2.1350587331       -1.0887834500
 C          5.9277557973        1.4480613691       -1.7795669885
 C          6.2620698919        0.0483330503       -1.2503276739
 C          6.5964555444       -0.0034593114        0.2425550994
 C          5.3640758875        0.0051479558        1.1531343676
 C          4.3515237500       -1.0815020757        0.8881661644
 C          4.6673861300       -2.3040181228        0.3150532188
 C          3.7108786336       -3.2934619312        0.0962206300
 C          2.3941704707       -3.1125807372        0.4646554402
 C          2.0433176961       -1.9126748817        1.0676650732
 C          3.0189029504       -0.9077979340        1.2634283203
 N          2.4288862646        0.1568757328        1.8990300325
 C          1.1050212914       -0.1163187119        2.1147618098
 C          0.1348206815        0.6511460970        2.7420722077
 C         -1.1243244790        0.1010378215        2.8839825512
 C         -1.4184619301       -1.1728361382        2.4028855350
 C         -0.4588047528       -1.9365981717        1.7674472915
 C          0.8167235348       -1.4094870784        1.6197625864
 C          3.1401994172        0.6338082992       -1.9154932595
 C          1.8274140637        0.2583211727       -1.8236440572
 N         -1.5722623904        1.0968043393       -0.4598144518
 C         -1.6762340595        2.4454891256       -0.1399017203
 C         -2.3005890389        2.8626496931        1.0406144365
 C         -2.3864818963        4.2065935835        1.3368676450
 C         -1.8618455679        5.1569353884        0.4713672325
 C         -1.2472560103        4.7476383587       -0.7037742972
 C         -1.1533418528        3.4069642847       -1.0136659521
 C         -2.5623782035        0.1284132146       -0.3920209669
 C         -3.9003301631        0.3223698499        0.0212337087
 C         -4.6039159050       -0.7292475831        0.6640421479
 C         -5.9009276363       -0.5614198098        1.0803575957
 C         -6.5655489872        0.6446081371        0.8694496469
 C         -5.9007258902        1.6826420615        0.2211131846
 C         -4.5987346826        1.5384739753       -0.1901382937
 C         -3.8636961937       -2.5326942416       -1.5785615558
 C         -4.3399199501       -3.7896053591       -1.8932844368
 H         -3.8702993819       -5.8649707288       -2.1496887971
 H         -1.4671017231       -5.5541523545       -1.6705068574
 H         -0.6044659417       -3.2944887715       -1.1221904467
 H          0.7385800897        2.6099351228        0.3858408900
 H          3.0949836018        3.2498299100        0.2254939969
 H          6.7993501666        2.0998317686       -1.6644716417
 H          5.6842116856        1.3834798604       -2.8489309996
 H          7.1251358725       -0.2964822334       -1.8245159532
 H          5.4350017647       -0.6327678196       -1.4440519885
 H          7.2243742415        0.8514301311        0.5042115793
 H          7.1796160979       -0.9051518017        0.4384125182
 H          4.8719335038        0.9743198461        1.0658409858
 H          5.7079883843       -0.0886036599        2.1899181700
 H          5.6874075793       -2.5130166285        0.0317937806
 H          4.0179034438       -4.2214004741       -0.3637296906
 H          1.6582277409       -3.8853447211        0.3040697124
 H          2.8742964749        1.0348729786        2.0976605262
 H          0.3583132025        1.6398507319        3.1161628996
 H         -1.8959038800        0.6622344835        3.3909014057
 H         -2.4133252721       -1.5673490465        2.5437167981
 H         -0.6937127511       -2.9241375685        1.4016901006
 H          3.7940460865        0.0915844763       -2.5787926882
 H          1.4595429304       -0.5851660992       -2.3841568099
 H         -2.7016998893        2.1246624292        1.7151985504
 H         -2.8636929087        4.5197527806        2.2541028973
 H         -1.9356729129        6.2071668018        0.7082990160
 H         -0.8452119189        5.4816428465       -1.3865767732
 H         -0.6848923369        3.0876130782       -1.9324464940
 H         -4.0881855626       -1.6557978824        0.8587911832
 H         -6.4096997679       -1.3710332161        1.5842620252
 H         -7.5849526064        0.7715308113        1.1994633527
 H         -6.4181265452        2.6125965334        0.0318922339
 H         -4.1202067295        2.3379183419       -0.7325658266
 H         -4.5278763946       -1.6838988094       -1.6091549867
 H         -5.3852536341       -3.9178547612       -2.1349070364
  82
  -122.735039450000       0.150355813460656      !
 C         -3.4631146621       -4.8882198121       -2.1884622790
 C         -2.1058868195       -4.7168974147       -1.9447073703
 C         -1.6188027416       -3.4806107163       -1.5830821393
 C         -2.4818184730       -2.3846278634       -1.4387101519
 C         -1.9081508626       -1.1134164513       -1.0762006957
 N         -0.6647994561       -0.8324222720       -1.4207159886
 C         -0.3969795917        0.4219491202       -1.0427773013
 C          0.9166008112        0.9278423064       -1.0935160118
 C          1.4128987884        1.9925362758       -0.3002036450
 C          2.7432435639        2.3106605567       -0.3263455428
 C          3.6500267545        1.6192320432       -1.1464439203
 O          4.9487455932        1.9968570551       -1.0199486809
 C          5.9677007698        1.3160654422       -1.7216235895
 C          6.2273021352       -0.1291326196       -1.2814118463
 C          6.5901286621       -0.2939748805        0.1958623125
 C          5.3944591083       -0.1752241127        1.1457443176
 C          4.2459630182       -1.1139069583        0.8700606120
 C          4.3754866675       -2.3254747697        0.2090169520
 C          3.2878097456       -3.1650204319       -0.0257427898
 C          2.0216038654       -2.8393371494        0.4120357243
 C          1.8563787309       -1.6489584536        1.1061401008
 C          2.9647786425       -0.7988323556        1.3233436040
 N          2.5496148505        0.2838263470        2.0583550739
 C          1.2099110428        0.1720524496        2.3179897994
 C          0.3781810321        1.0097787838        3.0448497623
 C         -0.9397740317        0.6268227501        3.2012591784
 C         -1.4258758402       -0.5508505393        2.6362652829
 C         -0.6024076998       -1.3850049678        1.9054223466
 C          0.7296191136       -1.0280674089        1.7440375523
 C          3.1604171463        0.6095334943       -1.9860328503
 C          1.8390266075        0.2591236823       -1.9372918595
 N         -1.5552401820        1.0333949583       -0.5131065955
 C         -1.6661167963        2.3704390347       -0.1529574567
 C         -2.2954529599        2.7520551970        1.0370677351
 C         -2.3841388215        4.0866737326        1.3718020127
 C         -1.8587316551        5.0632761269        0.5366096574
 C         -1.2393902240        4.6893745691       -0.6479313926
 C         -1.1420197836        3.3586464285       -0.9962927192
 C         -2.5267091569        0.0470303963       -0.4526072961
 C         -3.8459395269        0.1752238940        0.0400734916
 C         -4.4628840667       -0.9290940556        0.6833735071
 C         -5.7396323537       -0.8347884874        1.1780369851
 C         -6.4668584450        0.3461465935        1.0471466164
 C         -5.8861972250        1.4356675717        0.4026263441
 C         -4.6049377540        1.3652679580       -0.0865444182
 C         -3.8435113290       -2.5614189463       -1.7186035564
 C         -4.3209431352       -3.8034838023       -2.0857041477
 H         -3.8460162786       -5.8577777333       -2.4699495212
 H         -1.4321111592       -5.5561346903       -2.0395434865
 H         -0.5682642652       -3.3234459097       -1.3961593392
 H          0.7588942296        2.5115785352        0.3799527121
 H          3.1325304591        3.0991094943        0.3010485266
 H          6.8595709487        1.9225413920       -1.5358441762
 H          5.7577810049        1.3328385730       -2.7999459243
 H          7.0556039160       -0.4923360976       -1.8942957476
 H          5.3541648925       -0.7433687366       -1.4941695474
 H          7.3280626851        0.4619160440        0.4750864380
 H          7.0601142525       -1.2701978610        0.3304659723
 H          5.0239635583        0.8505794307        1.1106008912
 H          5.7522396082       -0.3543679680        2.1665638279
 H          5.3474342920       -2.6476571908       -0.1317341767
 H          3.4515107471       -4.0923039239       -0.5552604064
 H          1.1831889464       -3.4953589390        0.2380495683
 H          3.1210523079        1.0690594019        2.3135639259
 H          0.7494044414        1.9254806410        3.4817154025
 H         -1.6051341581        1.2497420034        3.7813084143
 H         -2.4644202504       -0.8110644993        2.7796827764
 H         -0.9815094987       -2.2985989117        1.4727998464
 H          3.8120364251        0.0990528820       -2.6764982912
 H          1.4618834378       -0.5382381321       -2.5561700135
 H         -2.6948497141        1.9952009011        1.6909033735
 H         -2.8650959045        4.3717764146        2.2962891959
 H         -1.9345886836        6.1059982175        0.8042515239
 H         -0.8371441474        5.4437325849       -1.3082044035
 H         -0.6706665661        3.0679417717       -1.9231312701
 H         -3.8952463625       -1.8363837797        0.8177936369
 H         -6.1822240874       -1.6824325789        1.6818410032
 H         -7.4706330242        0.4147590553        1.4371395882
 H         -6.4541820441        2.3466675607        0.2772238608
 H         -4.1899554793        2.2045931076       -0.6213491912
 H         -4.5138615020       -1.7178331275       -1.6804799053
 H         -5.3722525633       -3.9268666393       -2.3023176393
