35
 energy: -65.992073759147 gnorm: 0.000033082491 xtb: 6.7.1 (edcfbbe)
O           -2.72123837983423       -2.82456705774171       -0.03782944564474
C           -2.52554820052099       -1.62385595849784       -0.02110503171912
C           -3.63053327284769       -0.64305075257831       -0.00977791168691
C           -4.93995168690731       -1.12133102976039       -0.01118602213871
C           -6.01335878650579       -0.24844537380204        0.00110092129771
C           -5.79093644811679        1.12079840558534        0.01473943465727
C           -4.49646770386403        1.60956707049779        0.01511462606649
C           -3.40577999243544        0.74233372339218        0.00287885698651
C           -2.04624135267308        1.32309696893273        0.00206218648729
O           -1.85308866182182        2.52621694752008        0.00652770860739
C           -0.93253056978087        0.34721223702535       -0.00405161622676
N            0.29763414161178        0.84080906978050       -0.00321530064033
C            1.32140413289484       -0.00552099711652       -0.00232752788999
C            1.10017675808989       -1.41545214576029        0.00265035910233
C            2.19612706115309       -2.30043433791117        0.01431244534698
C            3.48158906385130       -1.82859823043201        0.01754734552095
O            4.47413029913528       -2.73229634439276        0.03048312532734
C            3.75087787381997       -0.40926926277801        0.00617393491213
C            5.05400401443122        0.11528033399449        0.00397140402720
C            5.26996082634691        1.47380305868298       -0.00819349371996
C            4.19446301348491        2.36171998761732       -0.01787707777198
C            2.90791146774243        1.87860906964481       -0.01546290420902
C            2.66588392489532        0.49864249621048       -0.00391139117333
N           -0.14749495924819       -1.90316833248591       -0.00462455379315
C           -1.15360411631210       -1.04875039243810       -0.00968241140305
H           -5.08873665227242       -2.19117482349594       -0.02176268207623
H           -7.02080727711736       -0.63543145847242        0.00010862519034
H           -6.62398729385606        1.80684184781825        0.02471345382964
H           -4.29915342914643        2.67154860853429        0.02478274215707
H            2.00813706850880       -3.36176417370593        0.02055016422343
H            5.34247868441090       -2.30371248808037        0.03251757024767
H            5.91512296645973       -0.53895633063309        0.01104041918705
H            6.27983940771151        1.85513326604386       -0.01028427860651
H            4.37511091836450        3.42554068807847       -0.02736237635766
H            2.05460616035869        2.53862771072923       -0.02262129811728
