35
 energy: -65.951753175178 gnorm: 0.000036611246 xtb: 6.7.1 (edcfbbe)
O           -2.56250961607708       -2.75192052102265       -0.00047186758904
C           -2.41081891181177       -1.52118600554802        0.00104700611777
C           -3.51096954518759       -0.57392200394323        0.00455011721804
C           -4.82060496181723       -1.07630091217271        0.00802885600666
C           -5.90622056367843       -0.23236020304645        0.01227280601170
C           -5.71456386111954        1.15002099921048        0.01293307863613
C           -4.43984710003703        1.66564919652606        0.00921886246970
C           -3.31747094133626        0.82490643684437        0.00503336152252
C           -1.99932360168323        1.43252639996602        0.00155548222251
O           -1.80205725729179        2.65518915953123        0.00059518725115
C           -0.87182642870981        0.50332485297477       -0.00025064947651
N            0.35814991646016        0.93420439384422       -0.00126601020838
C            1.42255675450381        0.18606265392387       -0.00113057136974
C            1.22990349481851       -1.25995572741991        0.00011077716184
C            2.35617655989138       -2.10111450385265        0.00171140211718
C            3.62816886269431       -1.59462618227388        0.00278153757664
O            4.64102847046145       -2.46983690705735        0.00495808680657
C            3.86159248013651       -0.16466282782977        0.00146316782863
C            5.14890639808969        0.39088651088616        0.00265250609550
C            5.33122139114578        1.75697257925426        0.00075561252199
C            4.23434903900878        2.61494838165251       -0.00250761666797
C            2.95826178886380        2.10062189315866       -0.00333095864873
C            2.75341148215703        0.71417178531500       -0.00116509764500
N           -0.00354687078270       -1.69359603643002        0.00018616694140
C           -1.07083533521312       -0.94299287368539        0.00010194411232
H           -4.94401671776276       -2.14944061133627        0.00749032423437
H           -6.90640622487901       -0.63832611181608        0.01515141061128
H           -6.56636237827163        1.81295673296655        0.01638784830709
H           -4.26556408342360        2.73171738275507        0.00957870614105
H            2.20426028443595       -3.16843798451076        0.00247114132484
H            5.49993289353473       -2.02221213512591        0.00561558815083
H            6.02637200772360       -0.24055454378887        0.00516943204346
H            6.33092622422395        2.16330934608064        0.00180007137188
H            4.38447173891347        3.68337587147755       -0.00425491116075
H            2.09215341183353        2.74438109572765       -0.00558939413846
