35
 energy: -65.992070167527 gnorm: 0.000098619766 xtb: 6.7.1 (edcfbbe)
O           -2.55941979923355       -2.73083342743516       -0.02953936578769
C           -2.39161040763372       -1.52588157488535       -0.01527933287286
C           -3.51899669030422       -0.57092676625156       -0.00155432527109
C           -4.81693291568360       -1.07938582006350        0.00737062042253
C           -5.91026332013735       -0.23159448584678        0.02156878113577
C           -5.71963231897676        1.14249436739845        0.02610963708874
C           -4.43684280459485        1.66110965576262        0.01592223382799
C           -3.32642729986022        0.81932870974621        0.00234405959480
C           -1.98073080911106        1.43141520456706       -0.00870448827869
O           -1.81570192881178        2.63869297590348       -0.01736736437144
C           -0.84467036726345        0.48161651972623       -0.00808809772297
N            0.37377766964419        1.00359547756381       -0.00615199462603
C            1.41683491063278        0.18118126721328       -0.00313179447370
C            1.22834197463015       -1.23351754721820       -0.00042853582029
C            2.34453011537130       -2.09284805162885        0.00685933831948
C            3.61874484986790       -1.59142070680871        0.01002502072963
O            4.63204047126740       -2.47180677835691        0.01742655815295
C            3.85508842236458       -0.16617555924713        0.00516700215316
C            5.14571610097919        0.38843500169750        0.00650811787836
C            5.33010098457481        1.75166926189032        0.00133489222323
C            4.23425299583500        2.61437373068192       -0.00512652686401
C            2.95923766018160        2.10158054010801       -0.00641769876334
C            2.74931471680221        0.71633308718723       -0.00143665691818
N           -0.00771638342445       -1.75002213811903       -0.00499820262036
C           -1.03332239317229       -0.91909050584091       -0.00927906171055
H           -4.94094113044911       -2.15241462863177        0.00329757614573
H           -6.90840497874963       -0.64194090374992        0.02903215058101
H           -6.56836990820489        1.80902633639079        0.03735843812210
H           -4.26411274507366        2.72740045505222        0.01843950319445
H            2.18122250854164       -3.15827969626493        0.00971789843944
H            5.49010424300523       -2.02300027674260        0.01935933692012
H            6.02180260166951       -0.24566273640179        0.01132567883988
H            6.33081423139649        2.15645729740994        0.00233656923846
H            4.39012116708012        3.68212456298368       -0.00900866147125
H            2.09092037157985        2.74176406977236       -0.01131667565064
