35
 energy: -65.951753335909 gnorm: 0.000024329189 xtb: 6.7.1 (edcfbbe)
O           -2.56139875916908       -2.75184719193093       -0.01706421951541
C           -2.40964227548726       -1.52111775467021       -0.01410139323887
C           -3.50980789290228       -0.57383028904597       -0.01345441292820
C           -4.81947901139036       -1.07612111711355       -0.01581249001153
C           -5.90507350540064       -0.23213576936067       -0.01511865854716
C           -5.71341982554395        1.15024175611406       -0.01205487602989
C           -4.43868385843730        1.66580659934144       -0.00986163324258
C           -3.31635324646843        0.82500778498562       -0.01048049258432
C           -1.99823286423001        1.43259655627054       -0.00806026218049
O           -1.80085315196408        2.65522586641037       -0.00621639722885
C           -0.87076258593951        0.50333931196152       -0.00766009679690
N            0.35911224046785        0.93438114512923       -0.00454630417545
C            1.42359793933241        0.18636787196672       -0.00398544229712
C            1.23116300624090       -1.25968337928041       -0.00698112511484
C            2.35772502878443       -2.10048291391114       -0.00636160610562
C            3.62957981793571       -1.59362168660465       -0.00379373824091
O            4.64269754856223       -2.46853810902881       -0.00321922966754
C            3.86269138538281       -0.16359949429938       -0.00168517510120
C            5.14981686450902        0.39240077051214       -0.00016335765752
C            5.33160959946602        1.75855816508723        0.00239412236978
C            4.23444635115083        2.61617610226862        0.00368756542409
C            2.95855192231620        2.10140521357563        0.00182736595526
C            2.75425976592728        0.71487596884786       -0.00114871880001
N           -0.00223210321036       -1.69348408512041       -0.01005504029666
C           -1.06963725716383       -0.94299212348758       -0.01067706547385
H           -4.94298456830157       -2.14924939272529       -0.01818788674777
H           -6.90527193581789       -0.63807163219940       -0.01691392914419
H           -6.56519485323052        1.81320948141159       -0.01142110184344
H           -4.26428818568621        2.73185540342963       -0.00756275781791
H            2.20622679165290       -3.16786943676152       -0.00801390869239
H            5.50144621620273       -2.02061880687399       -0.00067941221777
H            6.02752968043724       -0.23870270022306       -0.00114371822438
H            6.33115705622274        2.16528306401348        0.00343142304027
H            4.38418003314123        3.68465631049207        0.00596318187620
H            2.09216130731151        2.74478821979650        0.00245261146238
