115
 energy: -179.673409928508 gnorm: 0.000106335286 xtb: 6.7.1 (edcfbbe)
O          -11.23059156632257       -1.89599414396139        1.16553808967490
P           -9.93645831998261       -1.94257803577260        0.45679040677712
C           -9.40765069560198       -3.62920394649750        0.03373177573253
C          -10.22112246081735       -4.67873831133920        0.43783540682811
C           -9.85538237886294       -5.98439517187338        0.15950969030694
C           -8.67452008547485       -6.23899106059489       -0.51904792983453
C           -7.85983081363552       -5.19056028972215       -0.92068609605721
C           -8.22163901228787       -3.88458805543076       -0.64547361328352
C           -9.93220191819312       -0.95884553255644       -1.07820067228590
C           -9.95187646457570        0.42320679326963       -0.94215106063236
C           -9.99024466161110        1.22857125161716       -2.06532268046224
C          -10.01725464646756        0.65220827245973       -3.32603038680493
C          -10.01567772475530       -0.72628880188663       -3.46133143398507
C           -9.97495900977196       -1.53524965786100       -2.33803606330427
C           -8.58490908279785       -1.24140240816472        1.45293993514731
C           -8.73876349174653       -1.13906221346875        2.82913068120480
C           -7.74306636309173       -0.59766926039980        3.63464766637740
C           -6.56038701898825       -0.13051916463986        3.09044316430555
C           -6.38370873464148       -0.21600446731947        1.71504311614412
C           -7.39484746138788       -0.77942698118790        0.91249781513503
O           -7.05607717050018       -0.78310311269105       -0.40252077671499
C           -5.81962183141894       -0.20620521891560       -0.47828526931900
C           -5.08044276051093        0.01292966955049       -1.62622460073165
C           -3.84389894833157        0.61233332848681       -1.47809173078944
C           -3.34445991008724        0.99252066058735       -0.22499276026042
C           -2.02443164603029        1.63597078078530       -0.12539375297886
C           -0.94433448342549        1.17722395004671       -0.87588395363442
C            0.29301953403819        1.78251579681319       -0.77792709605511
C            0.49117409881293        2.86475053832173        0.07305001668084
C            1.83321763399724        3.56776510951722        0.11673102451263
C            3.00145019020457        2.60605082149317        0.02661472482218
C            4.16264181711572        2.94840148284267       -0.65472563495598
C            5.24556319439927        2.09047434578316       -0.67987599991377
C            5.20642870604204        0.86957902462892       -0.01109977722689
C            6.36019297414749       -0.04035396846254       -0.03527090181027
C            6.75730808442967       -0.71993025589377        1.11515356779417
C            7.84780083820424       -1.56632111370049        1.09892796476737
C            8.55963678046002       -1.76687948272123       -0.08047799010492
N            9.66387348808503       -2.63304350469279       -0.10316194403936
C            9.67849437801746       -3.93517028574865        0.35484494310664
C            8.64706980595147       -4.69753335417973        0.88587663232542
C            8.92736378031735       -6.00159337623121        1.24679968745588
C           10.19926565940248       -6.54609654549110        1.07844365805882
C           11.22353969365129       -5.80018712015321        0.52976756679968
C           10.96649086485682       -4.48616478700936        0.15920059899306
C           11.76411441783084       -3.45408486306401       -0.44207133607115
C           13.09139126820780       -3.38404492739975       -0.84642670687912
C           13.55945999772143       -2.19986762550764       -1.38040515504585
C           12.72592473891620       -1.08918911771668       -1.50026145884431
C           11.40246557883717       -1.13419284057405       -1.10551569132633
C           10.91961088578273       -2.32883311073520       -0.58902691869811
C            8.16564010529358       -1.10031198136459       -1.23740173534296
C            7.08422727593346       -0.24268823772156       -1.20911886035745
C            4.04575495722174        0.53560728636995        0.68344526798686
C            2.96163330651966        1.39045682563087        0.70166642357146
C            1.83167031178265        4.62636802517394       -0.97122813330118
C            1.66145073920765        4.46505989167766       -2.32995858582686
C            1.67799022326728        5.59112734301293       -3.14253898639107
C            1.85700908543295        6.85548078691911       -2.60145607845366
C            2.02057500522723        7.02480223645245       -1.23580123908947
C            2.00462862669697        5.90449519174418       -0.42074022921342
C            2.14209508059243        5.77352293887080        1.02114473834829
C            2.34259981223729        6.72922938771059        2.00407813455817
C            2.43537695553734        6.31593411413153        3.32359031849922
C            2.33491459371656        4.97282022650274        3.65455165432016
C            2.13493421672025        4.01107911165362        2.67291166774517
C            2.03364409937730        4.41689168578856        1.35908082166041
C           -0.58790331622287        3.33394945788069        0.81142027793513
C           -1.82466381031078        2.72433834000549        0.71979834099136
C           -4.10065046502727        0.76784430102721        0.91949220261008
C           -5.34293855814178        0.16445943711232        0.79362198826047
H          -11.13698877861558       -4.45014066784358        0.96525060364268
H          -10.49003811965309       -6.80076516145301        0.47174483963406
H           -8.38733948499214       -7.25712799662178       -0.73697834959219
H           -6.94038347114954       -5.39298821526144       -1.45048211462682
H           -7.59849162158473       -3.06098475329554       -0.96036383474405
H           -9.93552667208484        0.85413653799253        0.05157871725431
H           -9.99774495424862        2.30364603252437       -1.95906035887928
H          -10.04409034778832        1.28034719277673       -4.20431330932434
H          -10.04542679747798       -1.17427276775037       -4.44392148713021
H           -9.97331478683171       -2.61208147176914       -2.43606406104125
H           -9.66935521992923       -1.48291296041449        3.25828271235360
H           -7.90334762961127       -0.53724531274861        4.70057733021460
H           -5.79154187205994        0.29669654960476        3.71522527640515
H           -5.46359639859693       -0.26909812148087       -2.59412756104100
H           -3.25091575008150        0.81373112977418       -2.35723354603330
H           -1.06992056918981        0.32468989193708       -1.52739788077340
H            1.11884183211113        1.40173504804156       -1.36142513370149
H            4.22269743698646        3.89520017013866       -1.17152173333200
H            6.14259205968078        2.38278706160222       -1.20623563745155
H            6.22319149136704       -0.55971305005559        2.04008478504948
H            8.16390760424250       -2.06602558369089        2.00274831692515
H            7.65437408360469       -4.29027295031306        1.00510400690807
H            8.14197673847809       -6.61428370326277        1.66541040921104
H           10.37922378991633       -7.56892845857083        1.37584384913489
H           12.20507408504650       -6.22700998690714        0.38557444930526
H           13.74177023664972       -4.23952368366641       -0.73911384574920
H           14.58809132081523       -2.12523756232921       -1.70194923244462
H           13.12465905506833       -0.17143332444622       -1.90791141487350
H           10.76955665567732       -0.26333379146717       -1.18710215595870
H            8.70317662092848       -1.27007994798442       -2.15868089588789
H            6.77846106577555        0.25693484626452       -2.11655460155591
H            3.98491700360375       -0.41264373937493        1.19764243638993
H            2.06796348408783        1.10424409297069        1.23726565948974
H            1.52122291982625        3.48409176040318       -2.75897780692588
H            1.54958502507158        5.48020200942149       -4.20957746753589
H            1.86700317386770        7.71789400288381       -3.25254831160263
H            2.15624012228253        8.01082353622381       -0.81646103997023
H            2.42442784729344        7.77544172731931        1.74863090307389
H            2.59031189097642        7.04726074945815        4.10393689627190
H            2.41214096491806        4.67059019843801        4.68902930500912
H            2.05701240058561        2.96738530095407        2.93876801128076
H           -0.46161816898810        4.18528871508317        1.46442154901072
H           -2.65270228329724        3.11308766075133        1.29445520424784
H           -3.72214613528969        1.04131645135166        1.89207263709657
