115
 energy: -179.571199210001 gnorm: 0.000060342859 xtb: 6.7.1 (edcfbbe)
O          -11.22292503352474       -1.95994106987486        1.21578495139328
P           -9.93195688991808       -1.97114284037193        0.49819357637752
C           -9.38012129652007       -3.64235939566053        0.04501723619528
C          -10.16347268527550       -4.71331244276450        0.45473058236916
C           -9.77315437411621       -6.00854376195529        0.16355042178565
C           -8.59597721892542       -6.23387747343601       -0.53224599954252
C           -7.81059033869348       -5.16480758273782       -0.93877101994677
C           -8.19742635215771       -3.86909177885753       -0.65134920725655
C           -9.96586702465528       -0.97234030524653       -1.02782687546622
C          -10.01349640377511        0.40727835566174       -0.87649148283590
C          -10.08087019327927        1.22420430823224       -1.98989549235994
C          -10.10785840103858        0.66143540732136       -3.25671633297541
C          -10.07723232884543       -0.71507112111034       -3.40741300543732
C          -10.00870137625691       -1.53528243256317       -2.29361807129181
C           -8.58772030169990       -1.25740710400313        1.48677294481167
C           -8.72328084930011       -1.17307838863087        2.87084798696825
C           -7.72216375626407       -0.63086437391961        3.66606938068041
C           -6.55027270978689       -0.14523517803402        3.11270668403260
C           -6.39093777662075       -0.21386568592860        1.73061934651036
C           -7.40861789843239       -0.77746343531336        0.93786495305511
O           -7.08952746029798       -0.76289299396642       -0.38323778994862
C           -5.85838586752673       -0.17496206533212       -0.47043793326414
C           -5.13772345967097        0.06105938654518       -1.62518145688377
C           -3.90039956396105        0.66470635256124       -1.48840776374568
C           -3.38614923327900        1.03246196644434       -0.23725080759550
C           -2.06396917035187        1.67326803135666       -0.14867474532995
C           -0.99356174431020        1.21262100919881       -0.91203511056931
C            0.24766368727755        1.81085322106140       -0.82292195150655
C            0.45862097922063        2.88850552338646        0.03075249634804
C            1.80585152007920        3.57775143337085        0.06516825560057
C            2.96543190121667        2.61747111237178       -0.02017110169358
C            4.15969996288199        2.96622339943302       -0.67140159317669
C            5.23254840507539        2.12151403911005       -0.69252978578471
C            5.21182173671446        0.85281507680084       -0.03201041710373
C            6.31923886379738       -0.02230099094237       -0.04719866961638
C            6.42799824405601       -1.14191172919341        0.84816726942077
C            7.48986861348768       -1.98787958791984        0.82738081698754
C            8.56518829928767       -1.79321914667794       -0.07834186141807
N            9.64889520703005       -2.64294287088097       -0.09083043346454
C            9.60167769125345       -4.02512327703354        0.00815949025304
C            8.50304216404618       -4.87227912594060        0.06052303203956
C            8.73579139552593       -6.23527972487438        0.12379406532864
C           10.03097503666717       -6.75074774411499        0.11949985084492
C           11.13005015180089       -5.91565581440419        0.02360803283698
C           10.92051169332005       -4.54574462135529       -0.04275325138782
C           11.80039035797283       -3.41953792622419       -0.18247630004510
C           13.17948236740020       -3.29259940838553       -0.26682680515901
C           13.72459499792130       -2.02372583551477       -0.35261221619527
C           12.91314048518250       -0.89052561626921       -0.32921477521979
C           11.53521351656027       -0.99323821868195       -0.24741832470373
C           10.97770486658958       -2.26394649881159       -0.20541478316791
C            8.48720280794014       -0.69120025345785       -0.96951590756797
C            7.41669827106029        0.14385785790715       -0.96094323730236
C            3.99544514795152        0.53527141709186        0.65051225193544
C            2.92501705098481        1.38195966289388        0.65006976644552
C            1.82861792175080        4.64333655123692       -1.01566649836375
C            1.62647112262377        4.49730295694219       -2.37129088143466
C            1.68335160186269        5.62585004816844       -3.17914069016821
C            1.93598092786166        6.87674402433239       -2.63575203932111
C            2.13307343020509        7.03089839857363       -1.27290731953168
C            2.07598526839971        5.90837650760188       -0.46175251167235
C            2.22855993758327        5.76310349757479        0.97583390067613
C            2.49305466278959        6.70150942899760        1.96086449700837
C            2.57239132500362        6.27945587713763        3.27789171010420
C            2.39337189161164        4.94267835825596        3.60662757900641
C            2.13564301076146        3.99675752111089        2.62444601891339
C            2.04674576415234        4.41219394129347        1.31178915747636
C           -0.61009991251842        3.36009998449278        0.78216646722934
C           -1.85074882604086        2.75694220662805        0.69956529089403
C           -4.12532345797007        0.79384528734624        0.91467748184591
C           -5.36793687328487        0.18468401960759        0.80117139264486
H          -11.07691327389423       -4.50809836820562        0.99590787853972
H          -10.38580508228932       -6.84029063937866        0.47942412323589
H           -8.28923484889686       -7.24422122230616       -0.75975505149508
H           -6.89403968584555       -5.34341284740795       -1.48219537398704
H           -7.59690068983817       -3.02999565178434       -0.96943866778527
H           -9.99451452590453        0.82665514596788        0.12224821712952
H          -10.11047284629973        2.29766062279588       -1.87124603359982
H          -10.15634843171727        1.29858432190274       -4.12760090551222
H          -10.10607872956584       -1.15278578786276       -4.39472862731971
H           -9.98494696392326       -2.61080564277013       -2.40351349347039
H           -9.64421459236543       -1.53177209811995        3.30834718921324
H           -7.86782056178615       -0.58372174330873        4.73511768094053
H           -5.77716243422153        0.28182398969544        3.73202429703658
H           -5.53300872890312       -0.21217823367384       -2.59091520362144
H           -3.32093571066024        0.87863413670846       -2.37354317812981
H           -1.13106492895494        0.36410446271408       -1.56646403279062
H            1.06800435124713        1.43010775163442       -1.41469551768977
H            4.22687921119792        3.92328639265854       -1.16932768313932
H            6.13061842006829        2.44451532767095       -1.19442265410813
H            5.67065641431895       -1.28578875893358        1.60152833625869
H            7.56512618384876       -2.78061086633835        1.55698670733468
H            7.49489788018607       -4.48962268490030        0.03334031988685
H            7.89638589010970       -6.91271140112548        0.16935109969242
H           10.17429498599030       -7.81963352704204        0.17490804424686
H           12.13075914911899       -6.31903936833676       -0.00696610417044
H           13.81184576639957       -4.16725942727531       -0.25728617211902
H           14.79566756319388       -1.90476002954279       -0.42158987352924
H           13.36822960793937        0.08775594970808       -0.36727098573805
H           10.92183352833494       -0.10731241003328       -0.19796689574152
H            9.26235347795762       -0.57039041224529       -1.71178653464018
H            7.36587327288258        0.92293114793915       -1.70410168143723
H            3.90125266367737       -0.41319829010476        1.15496402068717
H            2.01875042861522        1.09373571138929        1.16411563743255
H            1.42857969333176        3.52676062322735       -2.80128543369220
H            1.52851901559239        5.52714952357734       -4.24384677142777
H            1.97708741361668        7.74097174873456       -3.28325119403451
H            2.32591975034419        8.00672345126772       -0.85210346844011
H            2.63422941985445        7.74187043686581        1.70728140808906
H            2.77681253550003        6.99739903323880        4.05919046429261
H            2.45621826923296        4.63419224283233        4.64020200785074
H            2.00048217002095        2.95823631722000        2.88762767460256
H           -0.47142925073619        4.20719877176596        1.43852708289639
H           -2.67171434023055        3.14526960405457        1.28475096497405
H           -3.73414685011471        1.05827559712852        1.88493384898660
