82
 energy: -120.447003513584 gnorm: 0.000052680271 xtb: 6.7.1 (edcfbbe)
C           -7.85017818151744        2.41681527887301        0.31685824894787
C           -7.47908083902747        1.07838239070034       -0.34918473120477
C           -8.64436045288508        0.57557307019864       -1.22217960262380
C           -6.26795650117259        1.29362663649948       -1.23719109240460
C           -6.34858956905537        2.19137247730353       -2.29361767907503
C           -5.29046975594023        2.40991933590868       -3.15645561055776
C           -4.11503298138661        1.70363969009108       -2.97509970462945
C           -4.00718359138127        0.80723836525223       -1.93237507668155
C           -5.06711672890540        0.60259468260667       -1.04360152070617
N           -4.92613168013007       -0.30329766522223       -0.00045518437878
C           -3.69350446484826       -0.98685825729339        0.15618431693845
C           -2.58655292109154       -0.32167364207392        0.67717903200691
C           -1.38041300138133       -0.97995603831859        0.81575385007222
C           -1.26403589273298       -2.31835045423553        0.43904029123656
C            0.00108464280288       -3.07361604582351        0.59593149894938
O            0.00152974798829       -4.27328048522878        0.82537816095473
C            1.26932543688409       -2.31509107997809        0.46238728977410
C            2.37676763486709       -2.72762712653821        1.20312771150093
C            3.57976027384887       -2.05895649396934        1.09761563303175
C            3.69703723931655       -0.97826724508344        0.22890355445803
N            4.93271641370461       -0.28361428255212        0.11984170732438
C            5.90256116402251       -0.76449950799900       -0.74630401435170
C            5.64097926514421       -1.90572476105021       -1.51031867130493
C            6.58442002552109       -2.40704253012130       -2.38286528362297
C            7.80816821378002       -1.77470064304134       -2.51053013915759
C            8.06621124031663       -0.64250697157499       -1.75913475346166
C            7.13558474839661       -0.11594869955663       -0.87363325959546
C            7.47947659007765        1.13197806911231       -0.08096370658079
C            7.77893106419996        2.27723727972683       -1.06648595632000
C            8.71869697616285        0.83850837063825        0.78574157824255
C            6.34067419052350        1.55639245564548        0.82820882677962
C            6.48630622424370        2.68113273071964        1.62908281169325
C            5.48714580884872        3.11046525549627        2.48375945366826
C            4.30300718008883        2.39862055758884        2.55138341805204
C            4.13105199859245        1.27756115048508        1.76632583919333
C            5.13728583308960        0.84627843505473        0.89680483551122
C            2.60489819098116       -0.58032137364205       -0.53579071591845
C            1.39731342962156       -1.24140755515309       -0.41844712470184
C           -2.38487715207623       -2.98762219500731       -0.05425744493619
C           -3.58677628312739       -2.32762888720450       -0.20549551594748
C           -5.96740785181907       -0.57648883385736        0.87684578931695
C           -5.76698035870333       -1.47056043926275        1.93313297168074
C           -6.78274433430330       -1.76478841912227        2.81871244147992
C           -8.01948849998179       -1.16261338597182        2.67241651124283
C           -8.21230317608379       -0.25897862197748        1.64374416651756
C           -7.20758689685897        0.05577811547338        0.73828637517292
H           -8.05817416991632        3.17718065553991       -0.43078836241751
H           -8.73017079525253        2.30712451700421        0.94445663558756
H           -7.02594890689308        2.76263131086755        0.93863570951685
H           -8.37533021655444       -0.36963640948635       -1.69106193844770
H           -8.88029939466293        1.29104384101046       -2.00490620534815
H           -9.53763707487185        0.41933439216460       -0.62389165067468
H           -7.26498958004856        2.73855269230057       -2.45512486867973
H           -5.38795340081951        3.11687790313840       -3.96668159480967
H           -3.28117056015411        1.84460225617501       -3.64710402480611
H           -3.09121104811973        0.25088817677200       -1.80782680983165
H           -2.68198553916941        0.71319110806956        0.97072409535834
H           -0.53450517241381       -0.46342072920471        1.24302619199703
H            2.27072405450428       -3.57152893731554        1.86888065321767
H            4.43467597651582       -2.36798620502742        1.68034617105848
H            4.68713950914650       -2.40262634063236       -1.41741314889818
H            6.36013563617654       -3.29097491547125       -2.96201429467220
H            8.55578376706909       -2.15702856044367       -3.18927517368408
H            9.02465000062830       -0.15854927671220       -1.87134042914308
H            8.04755228618400        3.18568977131888       -0.53453466199686
H            6.90002805153096        2.48279932886768       -1.67537215036091
H            8.60008380112038        2.01497434097946       -1.72772498167166
H            9.00376692331624        1.71306281405512        1.36392645049365
H            8.50392597299949        0.02507078014980        1.47700485085038
H            9.56386994277809        0.54863444533110        0.16760571094391
H            7.40671344207463        3.24400296422614        1.59055584569524
H            5.63498263490672        3.99018480359611        3.09212017284619
H            3.51098477247790        2.71268554446213        3.21552116339010
H            3.20678331165502        0.72353282603399        1.82728375211278
H            2.71176016627991        0.24851729234501       -1.21964981978340
H            0.55947590024534       -0.94116929618830       -1.02912531823795
H           -2.28757587742455       -4.02748478793979       -0.32976302900248
H           -4.45065951573470       -2.84196803578040       -0.59933187004812
H           -4.80238819737676       -1.93652981756753        2.06412547143013
H           -6.60316146059195       -2.46213129593949        3.62396105440467
H           -8.82425337867457       -1.38577093713371        3.35677774835264
H           -9.17778827960796        0.21452407392269        1.54971612974550
