82
 energy: -120.375996260373 gnorm: 0.000033786170 xtb: 6.7.1 (edcfbbe)
C           -8.02035659706192       -2.02241045855550        1.70654865484396
C           -7.67614115399498       -0.67241860524850        1.04646211493387
C           -8.92612388361075        0.22845410658035        0.99894391186508
C           -6.61315285597874        0.01701737697815        1.87523428925923
C           -6.87002918758688        0.32968031101232        3.20335198450693
C           -5.93616765309305        0.96737847846102        3.99961557936336
C           -4.70426572318567        1.31439993574140        3.46487616162199
C           -4.42085141151957        1.01829342181970        2.15089942215077
C           -5.36176999599851        0.36457803335256        1.34139248744867
N           -5.04471032523678        0.07993866918706        0.03040911270958
C           -3.77013491470317        0.47385767168554       -0.47349262835825
C           -3.62911578037915        1.67706735291554       -1.16890708304378
C           -2.39977626453604        2.05098671869051       -1.64893787994687
C           -1.25379844615188        1.25408157870034       -1.43821893962642
C            0.00527001486645        1.68766727533474       -2.01214856350297
O            0.00446787983369        2.50201833133638       -2.99442316809514
C            1.26659572827432        1.20333193808505       -1.48414042930910
C            2.40596537541613        1.24662711223345       -2.31599843024469
C            3.63444617055383        0.83190617359475       -1.86821244237360
C            3.78148778225272        0.37747753187650       -0.55554661991611
N            5.05221190735107       -0.06648446271596       -0.08537026102918
C            5.33040392747161       -1.41684257786975       -0.08995206067430
C            4.36116094671768       -2.31842642349034       -0.55432550116307
C            4.60541499232307       -3.67290598617887       -0.56862920155070
C            5.82579534854069       -4.15828199709533       -0.12257238579762
C            6.78812364612948       -3.27271177113669        0.32733599320252
C            6.57123846667864       -1.90163613178191        0.35373186300118
C            7.66529978528123       -0.97754045858967        0.84472197846590
C            8.90716051646023       -1.16428703870380       -0.04923092136523
C            8.00271068825398       -1.34157596945754        2.30432909195024
C            7.24298073632013        0.47552844916369        0.79406102329566
C            8.12631459827954        1.46406652945728        1.20616326165945
C            7.78520619906982        2.80427785126328        1.18996018068186
C            6.52291314904655        3.18352141910690        0.75777425246833
C            5.62561814657666        2.22625513576497        0.34173898754799
C            5.97117503896599        0.86660597183193        0.34486139893880
C            2.67959971152874        0.37773640739102        0.30124472186071
C            1.44742547873618        0.78769395280488       -0.15056896509879
C           -1.42724752300341        0.02489079455840       -0.77239840006765
C           -2.65986943708230       -0.35303453341892       -0.29483629205484
C           -5.92950679638200       -0.55768353556555       -0.81270967995361
C           -5.54168410587403       -0.84267056486553       -2.13045947751571
C           -6.40423894845277       -1.47090527632238       -2.99986377364324
C           -7.67354983113050       -1.83129278683592       -2.57207398618574
C           -8.05668955112114       -1.56196427932016       -1.27073314116251
C           -7.20862768053508       -0.93194755279901       -0.37002552065456
H           -8.37403872163174       -1.87507503509006        2.72255913964600
H           -8.79459412160351       -2.53849941786741        1.14680517444619
H           -7.13629548999984       -2.65664655132997        1.73740335372780
H           -8.68079348453684        1.18001267722525        0.53070888060837
H           -9.29867417112936        0.42380351565965        2.00009138674220
H           -9.71889752236240       -0.24258170983772        0.42546360635174
H           -7.82478909645718        0.07210680657480        3.63450862109446
H           -6.16837499038519        1.19517483786165        5.02872148259814
H           -3.96607572386638        1.81730589786382        4.07123568948419
H           -3.46604165908198        1.29238664466040        1.73054376333466
H           -4.49443047522548        2.30609290067019       -1.32296212339991
H           -2.27348949123796        2.97452204341999       -2.19580247272073
H            2.27478191880885        1.60748450162905       -3.32620042869388
H            4.49397894762966        0.85038396573592       -2.52319042456832
H            3.41548345869536       -1.93813215999622       -0.90712372219763
H            3.84546817387695       -4.34947336229531       -0.92960831321346
H            6.02723662766319       -5.21861373600065       -0.12924613321513
H            7.73376224733783       -3.66712601553117        0.66497425174174
H            8.66736114224651       -0.90108303989771       -1.07785212182072
H            9.24568391718427       -2.19585008917231       -0.02839250598696
H            9.72237662430007       -0.53049574517146        0.28667796792072
H            8.79653654376978       -0.70636971984125        2.68581416508092
H            7.12372065997527       -1.20952946889024        2.93265083834526
H            8.32673893458586       -2.37539332390767        2.37822163003947
H            9.11005505133574        1.18689469985087        1.55159707071489
H            8.49666712576805        3.54768950693046        1.51554940748727
H            6.23777729584532        4.22468820503784        0.74570097963216
H            4.64220567705777        2.51933995567284        0.00894976527599
H            2.80878414215649        0.06495709207480        1.32797866910274
H            0.61839549760614        0.83028929050488        0.53950023644980
H           -0.59162915737257       -0.65113343689502       -0.67228671177382
H           -2.78307176524002       -1.30122304080157        0.20961519565406
H           -4.55343408952317       -0.56342928493874       -2.46078013550519
H           -6.08657784715615       -1.67967368785468       -4.01032712962153
H           -8.35809595197896       -2.32187452025136       -3.24704174273717
H           -9.04563470091510       -1.85435979671808       -0.95386670995093
