45
 energy: -91.250089754945 gnorm: 0.000079768241 xtb: 6.7.1 (edcfbbe)
C            0.51806273932679        3.66605925976686       -1.15322774103811
C           -0.31637648049712        2.87872513187535       -0.21240054862926
S           -1.84130930242681        3.53882938284213        0.23777866822563
C           -2.23777025926287        2.13685466337110        1.20418473585974
C           -3.37583586258205        1.97584288134086        1.97256536931914
C           -3.48048543754266        0.84047210091940        2.75799850118663
C           -2.44084756467667       -0.08003002747081        2.79657498613166
C           -1.31053757352568        0.08799872197500        2.01798987269447
C           -1.20978430764721        1.18315912344530        1.16357677249623
C           -0.11112291369762        1.58018068866998        0.29475191149221
C            0.95072175088957        0.72494158855027       -0.04207646359093
C            0.94094949562129       -0.72721013430584        0.06747563289226
C           -0.12633288702203       -1.57301519311878       -0.27232418734288
C           -0.36084491043058       -2.85641982773735        0.25798530084100
C            0.43812366193125       -3.62755470493508        1.24200168838493
S           -1.87539362477662       -3.51455523316282       -0.22961423527834
C           -2.23185947633296       -2.12501870313506       -1.22970306315899
C           -3.34691134580881       -1.96575052340661       -2.03147052125207
C           -3.42416884521781       -0.83666847781872       -2.82910267929798
C           -2.38154602163333        0.08126011010889       -2.84393702596590
C           -1.27340321000057       -0.08566562053432       -2.03390092502340
C           -1.19953354298380       -1.17711582328304       -1.17210435748505
C            2.30837715340503       -1.17644312375611        0.43626186248774
F            2.69739707314089       -2.36324100846501       -0.09672086322000
F            2.51184557622928       -1.33127849969957        1.79611832081356
C            3.24916786115805       -0.04211993297671       -0.05968267149842
F            4.19027571601824        0.27875613099572        0.85566655148308
F            3.91975112195822       -0.44620201973461       -1.16347331668832
C            2.32914884003723        1.17198717257470       -0.37558817397349
F            2.75471053623032        2.26328008053243        0.32142310312363
F            2.52532005689320        1.52227576123814       -1.69551447070323
H           -0.01474038723569        4.56391971245240       -1.45676252391433
H            0.76207136655875        3.08658161203146       -2.04418591423764
H            1.45890043596493        3.96696595713219       -0.69079691262160
H           -4.15027048446592        2.72631016381769        1.96535570606541
H           -4.36078665305208        0.68657395627996        3.36253923879494
H           -2.50950813422529       -0.93752529245378        3.44833207024053
H           -0.49751879249601       -0.61447853536969        2.08952648150927
H            1.29417510149451       -4.10610425193217        0.76244597393121
H           -0.17616299770762       -4.40540600858310        1.68975249657369
H            0.82265868667486       -2.98386819040360        2.03208745594128
H           -4.12533141489573       -2.71207024181325       -2.03894764821050
H           -4.28626434479750       -0.68457512972547       -3.45978964535604
H           -2.43048161915587        0.93550730967425       -3.50171378369558
H           -0.45710766395664        0.61526689626561       -2.08410713342870
