45
 energy: -91.322254282366 gnorm: 0.000040800215 xtb: 6.7.1 (edcfbbe)
C            0.23440497524514        3.25757271719656       -1.67249744236515
C           -0.50545053988266        2.62702280410504       -0.54803152891658
S           -2.05546826732821        3.28856822058163       -0.12594192901369
C           -2.29437632272500        2.08531822614009        1.10850404479242
C           -3.38628788117039        1.96639626115251        1.95490803039370
C           -3.37901024571738        0.95435275142380        2.89266881716995
C           -2.28587649695088        0.09641184112632        3.00260998033367
C           -1.19970384222740        0.22058741137270        2.16407452629122
C           -1.20173278973376        1.20675159512988        1.17794772062174
C           -0.18717959282754        1.52967230741963        0.20338609452856
C            0.99973500140515        0.69880209627283        0.06443949934613
C            1.01883366466033       -0.65613556007279       -0.02234247463005
C           -0.11922410594144       -1.52945944303546       -0.23100035760145
C           -0.36032178318366       -2.69464781949710        0.45170588587867
C            0.46075349294048       -3.36536971351278        1.49319253712560
S           -1.88938382251752       -3.39739103129320        0.04058135557468
C           -2.21737664033094       -2.14245298301987       -1.12018480744648
C           -3.33221841174974       -2.04089612186433       -1.93818893360240
C           -3.38565156816617       -1.00040405300904       -2.84262680660114
C           -2.32504933223000       -0.10290392740796       -2.95201413560943
C           -1.21933086282121       -0.20581981265261       -2.13601938061071
C           -1.16623881111470       -1.21301391823578       -1.17254702132326
C            2.43392051286658       -1.17045912580267        0.07573949699432
F            2.69865838247616       -2.24075334876795       -0.70651002667028
F            2.78695054308102       -1.55030171025172        1.33900132896320
C            3.28010747044164        0.06949553531875       -0.30447772054911
F            4.53218898226161        0.05300735695194        0.18939571612532
F            3.39500766930434        0.15629196470289       -1.65149610948518
C            2.40301981201366        1.23470621480681        0.21504331997753
F            2.70607851268673        1.47754816849954        1.52676134613955
F            2.67921735469433        2.39328387863125       -0.42105252963623
H            0.84158597141084        4.08643734409852       -1.30632657429759
H           -0.46673888589030        3.65308555418902       -2.40410998072041
H            0.89954216261905        2.54816878043194       -2.15949019963043
H           -4.21271316562436        2.65530531248896        1.87865104981170
H           -4.21985208175657        0.83621387613309        3.55869851452525
H           -2.28799848306644       -0.67235242858163        3.76038197054371
H           -0.34301501044611       -0.42497949927263        2.27440208195338
H            1.36832109253800       -3.78157611153374        1.05421346071589
H           -0.10279076720095       -4.17651706035312        1.94684675745805
H            0.76119526918877       -2.66671647152106        2.27311079729372
H           -4.12722606640631       -2.76651483238336       -1.86819352439521
H           -4.24475368696903       -0.89508587122611       -3.48712669010992
H           -2.36769365461539        0.68079139708421       -3.69298378937406
H           -0.38723935350054        0.46814866948598       -2.25229600304482
