  45
        -91.29519210
 C          0.2735618223        3.2257883252       -1.6860573531
 C         -0.4911347270        2.5783752191       -0.5883193473
 S         -2.0925721497        3.1656071980       -0.2531760446
 C         -2.3326050803        1.9626372856        0.9802357469
 C         -3.4636713602        1.7850809017        1.7617041756
 C         -3.4522636281        0.7818784305        2.7084118061
 C         -2.3175657635       -0.0056126113        2.8952438153
 C         -1.1926182626        0.1767262872        2.1217620575
 C         -1.1977734359        1.1493301433        1.1222986980
 C         -0.1563734476        1.5086594290        0.1921444941
 C          1.0471256038        0.6988775735        0.0773011100
 C          1.0683218383       -0.6522236660       -0.0233203768
 C         -0.0882545508       -1.5069255855       -0.2103166123
 C         -0.3517779513       -2.6494796304        0.4975087077
 C          0.4885596067       -3.3441389311        1.5068163128
 S         -1.9335764938       -3.2801355530        0.1702459295
 C         -2.2558450117       -2.0206489305       -0.9861452849
 C         -3.4078195959       -1.8593031743       -1.7399930539
 C         -3.4511050049       -0.8255891730       -2.6523306551
 C         -2.3448001798        0.0009898361       -2.8395214088
 C         -1.2010653440       -0.1625485433       -2.0894384714
 C         -1.1582559568       -1.1543951233       -1.1095998723
 C          2.4834381465       -1.1696724890        0.0591236546
 F          2.7340675881       -2.2283514896       -0.7404318500
 F          2.8386106528       -1.5664578586        1.3133786217
 C          3.3226323637        0.0807956859       -0.3157367975
 F          4.5818401631        0.0606885997        0.1479655165
 F          3.4011061938        0.1888906417       -1.6643333021
 C          2.4485045754        1.2391648699        0.2338849839
 F          2.7473350117        1.4595544270        1.5456297590
 F          2.7110558909        2.4078137168       -0.3867742217
 H          0.8509982042        4.0667335568       -1.3003374260
 H         -0.4095541319        3.6058485326       -2.4428895674
 H          0.9697079951        2.5296967330       -2.1488073628
 H         -4.3235062284        2.4223973966        1.6279347694
 H         -4.3235404863        0.6169188174        3.3232373727
 H         -2.3190533598       -0.7650592441        3.6623419255
 H         -0.3045287600       -0.4103499421        2.2938243579
 H          1.3786563618       -3.7642339378        1.0375537148
 H         -0.0725547405       -4.1541610013        1.9665066790
 H          0.8186186550       -2.6586330739        2.2867896582
 H         -4.2392772765       -2.5350838685       -1.6158462029
 H         -4.3390875708       -0.6726230784       -3.2458210607
 H         -2.3819799291        0.7748935386       -3.5911254177
 H         -0.3323582039        0.4483558563       -2.2707925887
