45
 energy: -91.250105660223 gnorm: 0.000056927011 xtb: 6.7.1 (edcfbbe)
C            0.42471681817975        3.63002196836300       -1.33054647253451
C           -0.38050813740561        2.86067643416101       -0.35018926054589
S           -1.91608707955644        3.50274987884017        0.08984338864872
C           -2.26691134030493        2.13504515166314        1.12063383411623
C           -3.39076643267333        1.98200818299123        1.91125256588920
C           -3.45837373592475        0.88054780290122        2.74732051519558
C           -2.39672706212728       -0.01291365137137        2.81166676230751
C           -1.28122988668754        0.14627744501837        2.01022012296639
C           -1.21707537784392        1.20466405567465        1.10721937174968
C           -0.13913170910487        1.58875906719803        0.20676204446987
C            0.93641333327848        0.74317564247685       -0.11072461049599
C            0.96223064340430       -0.70237549807369        0.06595644796194
C           -0.09010630716557       -1.58819249428236       -0.21230569470902
C           -0.28343773649393       -2.84910339206501        0.38421565456013
C            0.54944857503519       -3.54916009982578        1.39299817568248
S           -1.78675363294396       -3.56922400024399       -0.04734915764750
C           -2.19605320878690       -2.23793072929224       -1.10472192026684
C           -3.32883186369017       -2.14447983956817       -1.89185796077754
C           -3.45048160763019       -1.05502797679042       -2.73760460708084
C           -2.43337026112951       -0.11180356806946       -2.81324466980917
C           -1.30692597571351       -0.21290908061743       -2.01769312696413
C           -1.18845961465187       -1.26210565869113       -1.10963324446082
C            2.34694375978756       -1.10076136996173        0.42872610519425
F            2.75017677357003       -2.31173471346394       -0.03283073896134
F            2.58566875720859       -1.15821041422220        1.79098042275225
C            3.24821958234618        0.01743516690573       -0.16536662701889
F            4.23689797983562        0.38601749134788        0.67876040158671
F            3.85857758266623       -0.43261315791978       -1.28665817115189
C            2.29860473431288        1.20624609033827       -0.48792184109932
F            2.71878282571253        2.32155292723203        0.17513817994922
F            2.45903141188533        1.53016896778034       -1.81864277192474
H            1.37477903487242        3.94801066206167       -0.90000967581663
H           -0.12198455226332        4.51662460022769       -1.64237763379953
H            0.64972582505343        3.03061083388133       -2.21348084920304
H           -4.18256037684649        2.71358327054335        1.88208908412323
H           -4.32649515455685        0.73377502076778        3.37092641252276
H           -2.43607528402996       -0.84140838051196        3.50212425031541
H           -0.45120686688717       -0.53349540268088        2.10181520294146
H            1.39383079608222       -4.05474758714771        0.92028697991780
H           -0.04561717057558       -4.29875213537035        1.90972717995737
H            0.95325230872911       -2.85266599303485        2.12637777209429
H           -4.08696038544781       -2.91037435572830       -1.85098920477380
H           -4.32747260517448       -0.95415720373224       -3.35792813884904
H           -2.51702107154089        0.71007115795999       -3.50772886987175
H           -0.51106155056313        0.50642767088101       -2.11435248217834
