64
 energy: -105.187333595823 gnorm: 0.000045343603 xtb: 6.7.1 (edcfbbe)
O            6.22655085212999       -1.95415942662061       -1.02614339640030
S            5.74768321996217       -1.21880036648381        0.11900922698732
O            6.25605181780590       -1.63396981756579        1.40425331102108
C            5.90568100533694        0.54211302802587       -0.11041449263328
C            7.04994654912529        1.27919003774939       -0.20187545441604
C            6.95540315434828        2.66107206585108       -0.38119786590304
C            5.69001815341973        3.27001104367886       -0.45765568259178
C            4.53780746133345        2.54084937885681       -0.36372442386044
C            4.60394519261926        1.13078476855091       -0.17743229098301
C            3.54801431541893        0.22562109069947       -0.03129733676135
C            2.15471233244294        0.47893136718577       -0.06672969630630
C            1.26920485000362       -0.55717172399431        0.02767300979248
N           -0.12780143563042       -0.32660139292187        0.01904076688531
C           -0.72275813987736        0.38523091378115        1.04677347016741
C            0.04500597535474        0.87752336855138        2.11184448129701
C           -0.54068352986032        1.59138004725204        3.13304763225166
C           -1.90828927958977        1.82923330114058        3.12754308173406
C           -2.67983095600328        1.31628283538142        2.10327324543916
C           -2.10996028170925        0.58938115917130        1.06729139001419
C           -3.01320401876003        0.01662193032246        0.01060481405504
C           -4.11030384124376       -0.82241286294836        0.64441223416225
C           -3.97460074996335       -1.97114096923254        1.39083762932945
C           -5.12347113329632       -2.58198282395238        1.87680751675452
C           -6.37586363238310       -2.04721098943767        1.61655889318465
C           -6.51486904230827       -0.89048577327835        0.86600229440068
C           -5.37335505225593       -0.27620511608836        0.37831768929327
C           -5.19920974247206        0.92539653907920       -0.42377217798370
C           -6.12176085586696        1.81901531385827       -0.94215311215237
C           -5.65873754714947        2.89471554538576       -1.68314514353779
C           -4.30226727890770        3.07721593160432       -1.90416246811095
C           -3.37159274976703        2.18505789069275       -1.38743860737971
C           -3.82962463326570        1.11639579264552       -0.65053885798605
C           -2.26787152177510       -0.76815292356188       -1.03227046101407
C           -2.98242946926607       -1.36170625682049       -2.06218910282609
C           -2.34009770953675       -2.05055269113890       -3.07420337865288
C           -0.95416490109475       -2.11829847629951       -3.08007765376321
C           -0.22508470577711       -1.53020765102265       -2.07013687300259
C           -0.87052878169474       -0.87857872196793       -1.00771618585926
C            1.70844576780831       -1.91508574988752        0.18399418695150
C            3.07597269495336       -2.17859871801233        0.24582201645276
C            3.96599921845809       -1.15315378865402        0.13346695731570
H            8.01054015834650        0.79116999928261       -0.14088429204430
H            7.84750592199028        3.26047483291929       -0.46464052765948
H            5.63622964501375        4.34065209406302       -0.59413049147203
H            3.57438159349944        3.02409820142178       -0.42171565068976
H            1.79332626078772        1.49039102813346       -0.17837997791163
H            1.10542253303309        0.68490412292513        2.13694529295854
H            0.07195954572613        1.96155868633513        3.94047751894525
H           -2.36815256994198        2.39588754095259        3.92181761540767
H           -3.74846547477544        1.47234699456079        2.10083758552954
H           -2.99921660525805       -2.38806948205343        1.59546116028946
H           -5.03930720921650       -3.48378537339554        2.46442439678639
H           -7.25513476753697       -2.53948225067312        2.00496979640502
H           -7.49217048376124       -0.47745975863648        0.66626292176009
H           -7.17908086755774        1.68092353643083       -0.77310123499068
H           -6.36401436329449        3.60128166991553       -2.09505136917235
H           -3.96449631042676        3.92229441608978       -2.48504973643788
H           -2.31483221594124        2.32722809690152       -1.56127604562714
H           -4.05888962624303       -1.27503057866843       -2.06561197416785
H           -2.91293879611559       -2.51047330539763       -3.86405715859195
H           -0.43831882999983       -2.62166297523591       -3.88303460670931
H            0.85201675900370       -1.56247334260866       -2.10085092270791
H            0.97679096026265       -2.69543336565621        0.31079334224828
H            3.43200637184986       -3.18979826862315        0.36906140503853
