64
 energy: -105.187369085047 gnorm: 0.000061752722 xtb: 6.7.1 (edcfbbe)
O            6.19363065040914       -2.03285078982642       -0.94140502982217
S            5.71884287085746       -1.26208842084881        0.18194184901525
O            6.18948768174307       -1.67111491128621        1.48343611939822
C            5.93959696671448        0.48829593837202       -0.07432826547033
C            7.10943402857239        1.18529500923139       -0.15659446604737
C            7.06452256048140        2.56584833549554       -0.36292576405139
C            5.82189196901368        3.21465162670260       -0.47526365088165
C            4.64434914443042        2.52587452427729       -0.39048436025500
C            4.65979108464240        1.11822291473760       -0.17723154248126
C            3.57159895687342        0.25133342439362       -0.03514475498770
C            2.18844201124423        0.55000592351665       -0.10274191669422
C            1.26736734420427       -0.45426012322162       -0.00470219344938
N           -0.12233704296919       -0.18755578356870       -0.04307121055963
C           -0.72385285146986        0.56545105851997        0.95094106013824
C            0.03800403499093        1.12535254494778        1.98620055503296
C           -0.55645607880121        1.88585317773005        2.96808586611047
C           -1.92705241121068        2.10423569967088        2.95232026203591
C           -2.69316343272722        1.52212122109716        1.96134235628882
C           -2.11449996291181        0.74871634962275        0.96480719214855
C           -3.01382561247166        0.07467667364201       -0.03433626925002
C           -3.96001559842472       -0.87830173164886        0.68117286400782
C           -3.63960479469548       -1.99030561817977        1.42652685776955
C           -4.67326864764235       -2.72447078517215        1.99361087543859
C           -5.99462101249082       -2.34555067499846        1.81307095956464
C           -6.31895445550598       -1.22562718009433        1.06400350906579
C           -5.29313323141235       -0.48873147867532        0.49571634295473
C           -5.31565265717624        0.71215536942509       -0.32575720759605
C           -6.36987850752721        1.48279150142371       -0.78735422822640
C           -6.08743472778949        2.59412925928533       -1.56577171147143
C           -4.77962663747188        2.93156979570280       -1.87884565507721
C           -3.71766527484111        2.16312702267832       -1.41951171601495
C           -3.99573056052236        1.05909662006315       -0.64548825307274
C           -2.25213195094264       -0.65168051168018       -1.10708602706958
C           -2.95231336089878       -1.24032980897801       -2.14952976112355
C           -2.29395512535040       -1.90415443777935       -3.16809459183020
C           -0.90737504612120       -1.95687809971578       -3.16437216938839
C           -0.19262719204867       -1.37430473576227       -2.14105692705989
C           -0.85387503688344       -0.74231207280221       -1.07657466056473
C            1.65862179300820       -1.82354650787186        0.17931388713515
C            3.01495915733393       -2.13100086073053        0.27297220846154
C            3.94040116240004       -1.13723423833598        0.16228057394375
H            8.05180891569041        0.66687236712020       -0.06828326741579
H            7.97758255545433        3.13368437871289       -0.44022710971124
H            5.80643402837161        4.28371909650786       -0.63224855205252
H            3.69891126231047        3.03966990540278       -0.47578340220225
H            1.86413105962334        1.57006336294606       -0.24547610849920
H            1.10078710329622        0.94838798624455        2.02097703572770
H            0.05201675310109        2.30808597846269        3.75282591435077
H           -2.39379731287541        2.70724399056821        3.71519127542171
H           -3.76450947876804        1.65813889120721        1.95621698775476
H           -2.61032695307958       -2.28584592317458        1.56956524244975
H           -4.44407865205615       -3.60020404673462        2.58197097036409
H           -6.78177290792268       -2.93187853789771        2.26351903744811
H           -7.34941528100961       -0.93417580585767        0.92688130217482
H           -7.38989486937972        1.22379567086851       -0.54640043523124
H           -6.89710455427595        3.20643189234706       -1.93435852133644
H           -4.58349526451912        3.80171524827496       -2.48717208275039
H           -2.69892321985729        2.42602226041676       -1.66463756458517
H           -4.03005014482088       -1.17201755057280       -2.15662913853194
H           -2.85564091418706       -2.35978867433862       -3.96838846325582
H           -0.38009412235230       -2.44451495622948       -3.96958950257170
H            0.88505228759266       -1.39388662770869       -2.16263626724130
H            0.89917405872106       -2.57812754150564        0.29850439177016
H            3.33480263183311       -3.15133703588375        0.41808756544996
