64
 energy: -105.279500049420 gnorm: 0.000072268466 xtb: 6.7.1 (edcfbbe)
O            6.65115056903459       -2.40683791846066       -1.22862252005647
S            6.18836572874304       -1.82351267049930        0.00016597015076
O            6.65103555535129       -2.40658352314335        1.22911885296620
C            6.42598864507164       -0.04256793649036        0.00000377456432
C            7.61086657020223        0.65301269194443       -0.00004347633099
C            7.56047476294591        2.04184084069435       -0.00017234468160
C            6.33759696724098        2.69510868215887       -0.00023869762562
C            5.14782171084805        1.98416506007210       -0.00018847369642
C            5.18760233489091        0.59461667990331       -0.00006862079123
C            4.04629536474679       -0.32064240739562       -0.00000619769117
C            2.70085807925151        0.02322268143413       -0.00003865233689
C            1.74262117456076       -0.98532162621903        0.00002495493472
N            0.36525123068531       -0.63875486751957       -0.00000084118089
C           -0.28959945867095       -0.48577667448725        1.21419834949369
C            0.40619171443961       -0.65175775422636        2.41393380158018
C           -0.23463395993247       -0.50064517337469        3.62711979183773
C           -1.58067325727349       -0.18099336104830        3.66985289747812
C           -2.27395404041295       -0.01485112682787        2.48539648081691
C           -1.64749854933776       -0.16243694964500        1.25702054207684
C           -2.46021095669535        0.03339844197228       -0.00003210829267
C           -3.67155216239263       -0.87926855760480        0.00025175433201
C           -3.70011406646638       -2.25594702153033        0.00050770290055
C           -4.93384541366341       -2.89307530201800        0.00068746387575
C           -6.11083441817063       -2.16019157991905        0.00062535188219
C           -6.08650538409578       -0.77458167475193        0.00037147404292
C           -4.85876961110013       -0.13381351094362        0.00017406176137
C           -4.51593618046333        1.28054699770654       -0.00008469852623
C           -5.31377077622819        2.41253646523601       -0.00021376814006
C           -4.70087188395966        3.65546437777834       -0.00051576437813
C           -3.31897853770296        3.76800692425652       -0.00069546546767
C           -2.51421176984340        2.63647905862755       -0.00055674644383
C           -3.11918859943129        1.39955427353179       -0.00024942364442
C           -1.64758677743657       -0.16292875341762       -1.25706425883611
C           -2.27412597048235       -0.01580405184538       -2.48545198441572
C           -1.58091789169765       -0.18235853775048       -3.66989297758501
C           -0.23486539682825       -0.50195143315249       -3.62713355771820
C            0.40604335438693       -0.65261126461552       -2.41393534783749
C           -0.28967757813603       -0.48622731905435       -1.21421487090806
C            2.11585431997110       -2.32614335058667        0.00010953795776
C            3.45952839674006       -2.67379486869191        0.00014223284461
C            4.39740385886522       -1.66879835247831        0.00008952252457
H            8.54947139624608        0.12203453285772        0.00000366317250
H            8.47625562088517        2.61257211559436       -0.00021730036199
H            6.31024905988049        3.77450801362528       -0.00033360585452
H            4.20441186417992        2.50757661527237       -0.00023901197352
H            2.38287050764947        1.05438727827205       -0.00010818416140
H            1.45620858029230       -0.90242185476991        2.39312595675618
H            0.32353274661915       -0.63448161050163        4.54159756559709
H           -2.08605032036914       -0.06238410618277        4.61563310825934
H           -3.32493092709610        0.23443293622909        2.50602977577086
H           -2.78305553866256       -2.82726585707782        0.00043852020275
H           -4.97752352912223       -3.97227053480040        0.00084698229999
H           -7.05940262415596       -2.67722022996108        0.00085222460814
H           -7.00598088945485       -0.20808124300054        0.00042256693807
H           -6.39057621538864        2.33013350362810       -0.00012646493589
H           -5.30733656827483        4.54951762874961       -0.00063658183739
H           -2.86364253876613        4.74750445671353       -0.00090484787689
H           -1.43721533115399        2.72406461969382       -0.00064787795991
H           -3.32510336920040        0.23347720414623       -2.50610460675561
H           -2.08636159336527       -0.06411753340058       -4.61568333777501
H            0.32323943561016       -0.63612587085552       -4.54159987533872
H            1.45606600495113       -0.90324988794982       -2.39310629064766
H            1.35004274362557       -3.08659578322829        0.00015458897816
H            3.77220278752059       -3.70576900066687        0.00022931146095
