64
 energy: -105.279809264494 gnorm: 0.000126971166 xtb: 6.7.1 (edcfbbe)
O            6.27204887892252       -1.92481234489543       -0.91851656567150
S            5.76820284160292       -1.17465763038550        0.19882896433640
O            6.27662982286051       -1.50216447364949        1.50239951702928
C            5.87364236343241        0.59252858873506       -0.10935098388393
C            7.00371789062660        1.36301367631560       -0.24009227404813
C            6.85070979748064        2.72434901173296       -0.47395331408422
C            5.58279702821012        3.27724910243760       -0.56856019475667
C            4.44895160315141        2.49142241835397       -0.43495652816312
C            4.59153521321001        1.12818794292424       -0.20323725008750
C            3.52143687917109        0.14517903703493       -0.03397684070729
C            2.15546880008569        0.38484038649743       -0.08490694027800
C            1.26887906879084       -0.67244783897075        0.10683306142919
N           -0.12440082917398       -0.43191792737068        0.06399027223043
C           -0.71571499745856        0.31379100697565        1.07956861759052
C            0.04813699471384        0.78788497813683        2.14947440455287
C           -0.52839134282477        1.53695213744200        3.15518391910990
C           -1.88221536215271        1.82286841514426        3.12483053399021
C           -2.65023525158019        1.32907922056250        2.08778098498602
C           -2.08797539141243        0.57370961457369        1.06900234876116
C           -2.99644118792105        0.02905755372975       -0.00513143924751
C           -4.09879359399769       -0.81032384915522        0.61276880873985
C           -3.97686615986908       -1.97325266115417        1.33989083677747
C           -5.13126376785283       -2.58159346287457        1.81459013746617
C           -6.37848671745413       -2.03074045830745        1.56274221723415
C           -6.50528604470024       -0.86001113668577        0.83209356049569
C           -5.35731501795517       -0.24891810968911        0.35603406375167
C           -5.17110454304199        0.96421531707399       -0.42610497333340
C           -6.08558493905580        1.87433127120211       -0.92940580638261
C           -5.61292529713429        2.95781980841214       -1.65276772702301
C           -4.25466338140624        3.13053742014828       -1.87088977947151
C           -3.33322306698126        2.22127321911044       -1.36857293296810
C           -3.79866571595937        1.14385796762812       -0.64844911170651
C           -2.25126974700991       -0.75921197164071       -1.05335490021740
C           -2.96964724416346       -1.29151537234907       -2.11417066272943
C           -2.34382109515805       -1.99710669192585       -3.12389500234075
C           -0.96950455244556       -2.15614700149877       -3.08277357195513
C           -0.23912110530459       -1.63417884215330       -2.03452632693380
C           -0.86911053822088       -0.94843443218348       -0.99271411413853
C            1.74346782317924       -1.96157854597837        0.34151149484541
C            3.10822348447510       -2.20660091545770        0.38196918711893
C            3.97200743623946       -1.15302784927562        0.19651753437167
H            7.97908159537779        0.90991702177313       -0.16057244871086
H            7.72171645659061        3.35231851798169       -0.58087981812120
H            5.47555906865227        4.33646438250628       -0.74885880432221
H            3.46930282295428        2.93731312585181       -0.50990692823557
H            1.76588009720906        1.37466509441593       -0.26719332009727
H            1.10159013433915        0.55941709060837        2.20157067967580
H            0.08645059532791        1.89287102170094        3.96823472534171
H           -2.33701185297559        2.41130391068560        3.90634348916879
H           -3.71219856318526        1.52537229184536        2.06211239258865
H           -3.00492182144636       -2.40195080627951        1.53732938852087
H           -5.05700418076346       -3.49447735079720        2.38699070207262
H           -7.26306174123410       -2.52149134844938        1.94189093279418
H           -7.47897979148172       -0.43470504614744        0.63878939006216
H           -7.14454411515318        1.74392493360182       -0.76253609840491
H           -6.31171364558293        3.67796515892121       -2.05296869334170
H           -3.90966154976716        3.98213791961526       -2.43869973674648
H           -2.27478150876144        2.35508014905044       -1.53993499222265
H           -4.03928635540912       -1.14293156813741       -2.14255120914311
H           -2.92002264098083       -2.40772341603493       -3.93828715771287
H           -0.45762355286045       -2.68594266566035       -3.87200376239643
H            0.83333113311155       -1.75400471255977       -2.02822251359888
H            1.03725258487244       -2.76472504937598        0.48757038854272
H            3.49401091875016       -3.19739473491436        0.56154367431456
