131
 energy: -174.518723386709 gnorm: 0.000024917262 xtb: 6.7.1 (edcfbbe)
C           -3.91707227875054        4.98670933657983        4.65732259578770
C           -4.93890324143531        4.02853839304858        4.02700065553385
C           -6.08499409340307        4.86595291982107        3.45128740876800
C           -5.51743515153947        3.10298250469206        5.10804509315273
C           -4.24267071745428        3.18357745078320        2.97096635194367
C           -3.15771219438243        2.38637159840521        3.33110595637437
C           -2.49380681424973        1.60257940681197        2.41151637770335
C           -2.88862648137273        1.59144486979508        1.07498643272995
N           -2.20863027923095        0.80649582614838        0.13628794454127
C           -2.91921991754689        0.15128854891295       -0.87453889118029
C           -2.39609860673373        0.03297822497900       -2.15931598886984
C           -3.10714292086670       -0.60736248354426       -3.15651770110879
C           -4.36854323243523       -1.14352674384459       -2.92322776339088
C           -5.19711353414105       -1.82560774190015       -4.00189084301848
C           -5.49176101586951       -3.27185805014238       -3.57824945282046
C           -4.48569745526161       -1.86096829320911       -5.35807262285998
C           -6.51690319259655       -1.05872854565156       -4.17618045293394
C           -4.87959024619514       -1.02374553878502       -1.63194345906851
C           -4.17640684936026       -0.39682622911310       -0.62454721568379
C           -0.81419731556006        0.70574716991822        0.19505959477665
C           -0.19754815349805       -0.50373389099915       -0.10552552399913
C            1.19222263945237       -0.60131685516184       -0.09679782917763
C            1.98282059160407        0.52016597002075        0.22882387606762
C            1.33258836276956        1.71703148203132        0.58716551508112
C           -0.05203644244357        1.81700051107499        0.54851864809734
N            2.09992515122726        2.82196583964818        0.92780557079489
C            1.64637395812417        3.75918800495490        1.86623793498800
C            0.84083084204969        3.36170137561334        2.93030755082177
C            0.45011717953831        4.27528356646752        3.88789116328842
C            0.88229273613718        5.58749781813032        3.80732482067405
C            1.71383450274394        5.97677590797163        2.77119064082963
C            2.10389267421346        5.07847487130571        1.78962685376197
C            2.98245803703970        5.43038195432332        0.60833891282560
C            2.08973084410085        5.52914582126401       -0.64804617538609
C            3.70067139411631        6.76829439044331        0.78693799587662
C            3.93795521930525        4.26586803294458        0.40888514010799
C            5.26147747227039        4.42747871496404        0.04561340567196
C            6.04534563758239        3.33048056574665       -0.28628550136183
C            5.50591546561596        2.06444176173224       -0.25559025371187
C            4.19120318221498        1.83331825128182        0.16127734129055
C            3.41824418797461        2.96337046741350        0.49676884974727
B            3.49562528878397        0.44943048135204        0.18001427601002
C            4.06686229336959       -0.97553786443956        0.05151944114793
C            5.41292710535249       -1.31469962845669        0.24598463024063
C            5.91575111206740       -2.58890206300891        0.07114343599659
C            7.37959880749465       -2.95102546210398        0.27489247179557
C            7.95153019398012       -3.48454748830745       -1.04734890795480
C            8.22916589191670       -1.75403208639405        0.71314758561320
C            7.48557725342447       -4.03349100843743        1.35950852569772
C            5.00995887705753       -3.57789890931678       -0.32430444512299
C            3.67340895993800       -3.30554328295793       -0.48705254178357
C            3.16973946599381       -2.01504287836014       -0.27759786241805
N            1.80950801063859       -1.79465101013716       -0.40267190806957
C            0.97303003677939       -2.88002548988041       -0.80336940991023
C            0.62780167073036       -3.04021674108885       -2.13550455939723
C           -0.20807350283609       -4.07504658676214       -2.52000061097110
C           -0.71686424969799       -4.97615127487035       -1.59199677668364
C           -1.64197364924723       -6.12286173138315       -1.97006090231172
C           -1.95563165942002       -6.15791729412944       -3.46861796160684
C           -2.96497304617858       -5.96565149255948       -1.20517926340941
C           -0.97397881328557       -7.45275104280636       -1.58973718759867
C           -0.35348314816043       -4.80230123389612       -0.25740403530684
C            0.47555212400669       -3.77159722530532        0.13826897985485
C           -3.97336290609357        2.38020041724100        0.70356375485326
C           -4.63529478351563        3.15529407120063        1.63751987891637
H           -3.12489898642142        4.44239334023632        5.16333850595687
H           -4.40614070242742        5.63018008278627        5.38592112790156
H           -3.46397407813303        5.61259351119946        3.89070455308680
H           -5.72204287680853        5.55387967512200        2.69085780895657
H           -6.53987098016411        5.45311017711000        4.24682042560036
H           -6.85626312902703        4.23158524028229        3.02020975405734
H           -4.73648047081188        2.51983872667699        5.58868583197702
H           -6.02464048573615        3.68931790187047        5.87156424354060
H           -6.23546008617927        2.41329802969934        4.66818892748447
H           -2.82069284837647        2.36358544688797        4.35648329637315
H           -1.66355989298971        0.98516872191207        2.72310498622784
H           -1.42474692137243        0.45331444435648       -2.37709987340092
H           -2.65678533438387       -0.66678780281499       -4.13407003528866
H           -4.56144054490989       -3.81742434705037       -3.43620554984528
H           -6.05264580305542       -3.30667798004612       -2.64823620658817
H           -6.07375568532471       -3.77699287532028       -4.34642765838255
H           -3.54832289020026       -2.40885242803433       -5.29577498539474
H           -4.28623619246879       -0.85520217832503       -5.72114802335487
H           -5.12020397792135       -2.36153816056633       -6.08701898395485
H           -6.31789418988982       -0.02578755037041       -4.45593755745589
H           -7.09785191375217       -1.05645189956364       -3.25788619286685
H           -7.11729395726986       -1.51879840770701       -4.95850549964654
H           -5.85109278770465       -1.43146604999381       -1.39486172888291
H           -4.60005714637337       -0.32482001064168        0.36714393951393
H           -0.81336019492330       -1.35598043982182       -0.34633512917685
H           -0.54355818260479        2.75266339635209        0.76980699124582
H            0.53354570789696        2.33028383124057        3.00790054603956
H           -0.17923953063008        3.95708350073614        4.70519319099234
H            0.58091710695636        6.30656472195968        4.55453448576863
H            2.05303742420156        6.99938428085925        2.73679441835855
H            2.70212790071922        5.73912018088003       -1.52288533387676
H            1.36331712372415        6.33047285592697       -0.52621152631219
H            1.55211677829502        4.60028134187162       -0.82169408377429
H            4.29464417920014        6.99716833021549       -0.09419272275590
H            4.35042562744185        6.74942642712250        1.65946162777327
H            2.97513322581136        7.56987461160346        0.90108627794738
H            5.69726373421832        5.41153689712146       -0.01658016245129
H            7.07109734517954        3.48111365230401       -0.59249474989367
H            6.10574903007372        1.22707995749126       -0.57631229321510
H            6.06716377171879       -0.52224527806944        0.56692430394714
H            7.85773450125567       -2.73198392819657       -1.82827090448827
H            9.00505053422643       -3.73078743818148       -0.92915405416579
H            7.42770773690119       -4.37937031195252       -1.37308456509278
H            9.26070135812517       -2.07289609172761        0.85194613859803
H            8.21915021458240       -0.96980829891146       -0.04035506758356
H            7.87322861958941       -1.34536892392217        1.65625278623577
H            7.07272462816880       -3.66685055968542        2.29756962572175
H            8.52779815540070       -4.30153698138408        1.52227027451712
H            6.94343007147242       -4.93213496485656        1.07725597751156
H            5.34858417399658       -4.58922462459989       -0.49599328190328
H            3.00560595619124       -4.10593825186173       -0.77021289148062
H            1.01295515383680       -2.34829950667120       -2.87053710988424
H           -0.45527015539066       -4.16332457486432       -3.56489165642198
H           -2.44803990735809       -5.24187298766010       -3.78588174199762
H           -2.62539413888489       -6.98923469205198       -3.67934805178151
H           -1.05102792035990       -6.29911144809852       -4.05583781368239
H           -3.66668402621017       -6.73982986922314       -1.50811392627158
H           -3.40823780145448       -4.99411058932492       -1.41512254215054
H           -2.81553148511760       -6.04459518544961       -0.13193009239228
H           -0.02701071163887       -7.56243940328008       -2.11488590340625
H           -0.77996993781458       -7.50916378194027       -0.52213894809643
H           -1.61869859817500       -8.28518091749195       -1.86329870508546
H           -0.72372621721205       -5.47939056058130        0.49704004510312
H            0.74250235970905       -3.64985952258163        1.17831254917389
H           -4.29676153459119        2.38669913236026       -0.32775742966899
H           -5.46703847158680        3.75042904661198        1.29704477856101
