131
 energy: -174.430768000927 gnorm: 0.000062082687 xtb: 6.7.1 (edcfbbe)
C           -1.74227150338573        7.30137604922455        2.19246806993455
C           -3.09072180952116        6.56941792144436        2.11706135597398
C           -4.05443671600457        7.43029646984508        1.29465002996757
C           -3.67433478221019        6.41112432821085        3.52943120406805
C           -2.87554480016185        5.19090278393088        1.51276669003929
C           -1.99822036431466        4.29710869370373        2.12699475047440
C           -1.76570917240613        3.03888305324148        1.61622198765768
C           -2.40996772251275        2.61647692234349        0.45291439452214
N           -2.15982764295454        1.35044587567996       -0.08236097159280
C           -3.18878377948158        0.61502884212033       -0.66931388166706
C           -2.94935605198913       -0.21242981015304       -1.76628831647227
C           -3.97323970215482       -0.94236878957855       -2.33757893725513
C           -5.27546210371142       -0.87792798500963       -1.85224912487661
C           -6.43466472078928       -1.64420835605876       -2.47005561241282
C           -7.04492738038696       -2.57754953188321       -1.41405010113375
C           -6.00671598940758       -2.49532045091954       -3.66958285504608
C           -7.49561369794206       -0.64196992268578       -2.95005610583285
C           -5.50182307379449       -0.05349946203897       -0.74947464778821
C           -4.48931191540696        0.67461799783317       -0.16381736536145
C           -0.85584839191152        0.83820488515134       -0.05948127092615
C           -0.64454495969833       -0.52949579746601        0.18516948124766
C            0.64051397321518       -1.06013806087751        0.14719168881801
C            1.75903319130927       -0.23827796789139       -0.11020665175860
C            1.52639288386945        1.14359200768367       -0.26804787224254
C            0.23815887002592        1.67217379459826       -0.28409407751497
N            2.62025412196445        1.98262131405363       -0.48574513716494
C            2.61649500084642        3.28622038732633       -0.01575934560838
C            1.93141737356898        3.61991494870653        1.15792587290981
C            1.97528191881652        4.90542782512488        1.64767567427886
C            2.71479909818474        5.87501205039067        0.98494564858995
C            3.41694438300132        5.54293607122363       -0.16424531817903
C            3.38304045790519        4.26015445422226       -0.68174347435906
C            4.06389930406499        3.83385321526964       -1.96331471639082
C            2.99138316805244        3.75931175716243       -3.07473404625311
C            5.13965289611848        4.82452643617295       -2.41147667136860
C            4.60413995175346        2.43169689084384       -1.74432097978134
C            5.82077330631896        2.00041175089713       -2.26095820757026
C            6.18999294490256        0.66554784013838       -2.15412473067675
C            5.36021995234723       -0.24476576449116       -1.53847853249575
C            4.14716374664570        0.13635180461711       -0.94234288982775
C            3.79470510332182        1.50809845928077       -1.07337030052659
B            3.14984459035650       -0.81450439643744       -0.25705870816718
C            3.27957436554325       -2.28271528870969        0.17870955661280
C            4.49252206952125       -2.96137684145482        0.37368248922708
C            4.58352352305013       -4.29242991117504        0.74788205782746
C            5.90699652740485       -5.01038363673821        0.95963695368015
C            5.99513060639587       -6.19929704254904       -0.00973826592412
C            7.12059554709569       -4.10808458623861        0.71581882686335
C            5.97314483938351       -5.51790446665610        2.40845316068677
C            3.38753441846427       -4.99159520711415        0.93548523094556
C            2.16552733042315       -4.36078122671475        0.79735477813986
C            2.08773017501191       -3.01181565386903        0.44609140003308
N            0.84130737593714       -2.41112994719704        0.36591862257445
C           -0.31652408626728       -3.21625975792103        0.57724546580742
C           -0.95724366776189       -3.80309032008008       -0.50285279424121
C           -2.09739982927827       -4.56383464871954       -0.30860033960061
C           -2.62707369146464       -4.76126840535501        0.96130320086863
C           -3.88194248235611       -5.58163268679665        1.21745579516790
C           -4.48297500616211       -6.15717094773117       -0.06819682052445
C           -4.93455420062175       -4.67994190082022        1.88009890311977
C           -3.53592067575324       -6.75284549100827        2.14895739379674
C           -1.96594244164619       -4.16720238259524        2.03526606291230
C           -0.82956473006340       -3.40392131354776        1.85413955431059
C           -3.29373811025615        3.49858079728971       -0.16675676355159
C           -3.51917267382966        4.75618143133520        0.35843048877724
H           -1.04339588740779        6.77818339393502        2.83865181329746
H           -1.88319951636255        8.30556269557181        2.58707502978740
H           -1.29817115648269        7.37770347222440        1.20171709500190
H           -3.67560512749109        7.58651042400483        0.28702061879468
H           -4.16354164630093        8.40437892614175        1.76758822674263
H           -5.03968373735652        6.97284811842791        1.23913360160795
H           -3.00040496862032        5.85528957732297        4.17577572417374
H           -3.84623637406079        7.38857511126662        3.97550328682465
H           -4.62277457059723        5.87879542124180        3.48751946105359
H           -1.48480928496622        4.58149895191961        3.03284244080619
H           -1.09016748055005        2.36381575862592        2.12117219883249
H           -1.95277136593856       -0.27083082488123       -2.17946867638715
H           -3.73423458011379       -1.56029963746637       -3.18771175636976
H           -6.29301191026370       -3.27541932457564       -1.05227573325960
H           -7.42867990632270       -2.01927827471429       -0.56457105741229
H           -7.86511402573918       -3.14737742357657       -1.84578666503500
H           -5.26493194191091       -3.23616963740607       -3.38050682621814
H           -5.59875535318870       -1.87468573572609       -4.46427083273678
H           -6.87186285651334       -3.02292804242150       -4.06652160892745
H           -7.06667025801428        0.03710574506187       -3.68463473669836
H           -7.88368211572127       -0.05022120302907       -2.12546450251338
H           -8.32729698291139       -1.16981698885567       -3.41231637456175
H           -6.49235726560156        0.02342179261931       -0.32665722961798
H           -4.69678790244171        1.29536554086452        0.69597714802955
H           -1.50143195018371       -1.15455233618119        0.38212520764462
H            0.07685715492009        2.71978754632128       -0.49360364399425
H            1.39403274457210        2.85037733514485        1.69025527673909
H            1.44728681574468        5.15133235477693        2.55647693758046
H            2.75270660877107        6.88467315003140        1.36529218542118
H            3.99254931966071        6.31095572230454       -0.65521266969237
H            3.44506138065046        3.42075656569550       -4.00411028208552
H            2.55005424665396        4.74138323326795       -3.23471590198495
H            2.19935528802830        3.06358242470798       -2.80779327733064
H            5.58177082721971        4.50078385111745       -3.35005979203890
H            5.92282961213891        4.91396828508461       -1.66152119325609
H            4.69959025433732        5.80327362799801       -2.58524340052914
H            6.48104311773738        2.68517409401169       -2.76636900839857
H            7.13289992314200        0.34207564562872       -2.57504715270413
H            5.64392609899988       -1.28537931359658       -1.51734291472949
H            5.39125284216385       -2.38483533565878        0.23894486111005
H            5.92617133571040       -5.85048777753540       -1.03859264570941
H            6.94413272410302       -6.71693190853264        0.11705492609171
H            5.19279562181606       -6.91177348606328        0.16242217137507
H            8.03427803652868       -4.67467875663701        0.88731585368475
H            7.13803877974720       -3.74470887831813       -0.30920948516263
H            7.11930400408505       -3.25736263424292        1.39361951299237
H            5.89378211464570       -4.68264813285769        3.10197676382932
H            6.91907965451433       -6.02624578966609        2.58562549579457
H            5.16641939790429       -6.21444369143189        2.62090865427417
H            3.39591333598585       -6.03658938460225        1.20627416831152
H            1.26413356123499       -4.93099404232314        0.96802159132178
H           -0.55894042758406       -3.65972460959500       -1.49680446690273
H           -2.56608178786086       -5.00107899714914       -1.17446841145251
H           -4.76902649131022       -5.36455276007652       -0.75521223481652
H           -5.37629913740418       -6.72920243119792        0.17420703481786
H           -3.78207580054493       -6.82451165172071       -0.56463722587602
H           -5.86319824005999       -5.22905727810907        2.01982688619125
H           -5.13554629482401       -3.81273218306719        1.25398935085611
H           -4.59965438142308       -4.32628481730492        2.85130007198497
H           -2.77704893919820       -7.38564230132338        1.69253969860259
H           -3.15716905240263       -6.40270909626517        3.10518911924127
H           -4.42202034038196       -7.35619082405483        2.33426870788010
H           -2.34057775561771       -4.29520516102381        3.03916969924328
H           -0.33207022816577       -2.95006130229721        2.69906636870901
H           -3.79850303163157        3.19423331740341       -1.07254416600956
H           -4.20722227981501        5.40190947117460       -0.16243372122552
