131
 energy: -174.518749301401 gnorm: 0.000043361781 xtb: 6.7.1 (edcfbbe)
C           -1.15237593889631        7.41814541775056        2.16496296428777
C           -2.55289919848057        6.78976271946685        2.10981674192037
C           -3.45565526423682        7.71073210516620        1.28330217513696
C           -3.13511555174350        6.69478518970035        3.52826401618089
C           -2.44805786064843        5.39060441744765        1.52213440799772
C           -1.63762522741027        4.44103696805804        2.14177759759026
C           -1.50893073877587        3.16039844249834        1.64733795564073
C           -2.18945084625138        2.77590727928174        0.49372853879000
N           -2.05073033594645        1.47992743250600       -0.02028502282468
C           -3.16517549747489        0.82232523933685       -0.55109387733143
C           -3.05537049582312        0.00498454823028       -1.67265673194138
C           -4.16616481153020       -0.62807788914314       -2.19783782588028
C           -5.42952418280265       -0.46706599376314       -1.64021599838795
C           -6.68245623619762       -1.11390352113483       -2.21224363054042
C           -7.32977895948747       -2.00828059116922       -1.14506618652009
C           -6.39138374889605       -1.97667957816576       -3.44412335709361
C           -7.66602888974226       -0.00818504450540       -2.62525847978615
C           -5.52597914186876        0.34841511695471       -0.51389636182206
C           -4.42435907383951        0.97759951830329        0.02700457263238
C           -0.79142220835024        0.87212658817090       -0.03824774910442
C           -0.68120642230115       -0.49738200693381        0.17761826068258
C            0.56510560939438       -1.11709530991160        0.11580237879843
C            1.72467429831952       -0.35975037742360       -0.14937882754523
C            1.59399298073109        1.03366420056924       -0.30626231525545
C            0.34597563323021        1.64146662342721       -0.27555968121955
N            2.73096881476734        1.79097023903205       -0.55054735389418
C            2.83745908268889        3.11069542967961       -0.09067852888416
C            2.22806970947459        3.49561141035514        1.10076645591707
C            2.38886390620130        4.77861849362322        1.58275811815371
C            3.18061166824686        5.68077444985076        0.89401626501430
C            3.81849304596383        5.28910344942372       -0.27060960603344
C            3.65725779613173        4.00969884371922       -0.78015535407901
C            4.29345792460815        3.51192884384160       -2.06036276959704
C            3.20546231062487        3.46233254234234       -3.15540097433555
C            5.41987506796465        4.42213036354060       -2.55076598201119
C            4.75316049640196        2.08755810559332       -1.79786909462370
C            5.93174045465823        1.56806652494475       -2.29886646698136
C            6.22288588538031        0.21625787097058       -2.17130896733405
C            5.33345514225749       -0.62280626833098       -1.53896090318496
C            4.15357877471447       -0.14428392166824       -0.96083428481674
C            3.88316800527046        1.23183228292762       -1.10149786249300
B            3.07939034244664       -1.02533918707223       -0.27695131441815
C            3.12179901529791       -2.48798081061244        0.20347530139969
C            4.29674650175595       -3.21447219941174        0.44029969005308
C            4.31326595618266       -4.54170805419408        0.82145801784470
C            5.59097362745647       -5.32557056009039        1.08343893833614
C            5.65862045541107       -6.51759906790100        0.11690204789668
C            6.85306807639598       -4.48027523132131        0.88555021496117
C            5.57911466185224       -5.83403503665589        2.53296797890988
C            3.07454066414147       -5.17526315712866        0.96089845042615
C            1.89428772273323       -4.49627833005438        0.77856590448354
C            1.88982487064432       -3.13899670225727        0.43122993432980
N            0.68070362047716       -2.47562606554600        0.31710664335088
C           -0.52743226063587       -3.21966885238396        0.47269517442050
C           -1.19941747561806       -3.69438484524738       -0.64203989227531
C           -2.38776435343354       -4.38986892665995       -0.49660290730272
C           -2.93359445821055       -4.63376258984686        0.75812587454217
C           -4.23680631171326       -5.39112541001291        0.96184455136779
C           -4.89910931298245       -5.79038983519266       -0.36000790999223
C           -5.21656719348375       -4.49918796771786        1.73933684471806
C           -3.94918650379123       -6.67092218982809        1.76101686948937
C           -2.23829347433613       -4.15669681082426        1.86826416059771
C           -1.05543970588958       -3.45697611374808        1.73515984692807
C           -3.00708281693534        3.71290576846945       -0.13062784199322
C           -3.13226342528176        4.99173669671701        0.37945597216495
H           -0.49029871064156        6.85200132763287        2.81374628786089
H           -1.21280801554611        8.43571958459252        2.54570092469040
H           -0.71181557018054        7.44596829132630        1.17006223143916
H           -3.07452377933018        7.82515767347517        0.27094290098148
H           -3.48731726254244        8.69606637161568        1.74439878243318
H           -4.47296403102207        7.32812514413100        1.24089154290559
H           -2.50117290289192        6.09595635014763        4.17670093460330
H           -3.22732628511274        7.68792334880172        3.96325168833807
H           -4.12219063362318        6.23695502132670        3.49990073356496
H           -1.09487323259287        4.69681929405174        3.03926522980537
H           -0.88144608710664        2.44251832210569        2.15572352966032
H           -2.09042471817950       -0.12711063227217       -2.14061743457521
H           -4.02536887549774       -1.24565197175159       -3.06999597036544
H           -6.63841890540448       -2.79139519640765       -0.84212244604944
H           -7.60641002316714       -1.43781106582837       -0.26268242934250
H           -8.22768083689958       -2.47673268045552       -1.54299649109720
H           -5.70633866568539       -2.78623513011633       -3.20300270322621
H           -5.96749922552830       -1.38014451100778       -4.24887572064035
H           -7.31881616159418       -2.41707692978943       -3.80528073808840
H           -7.20888992595973        0.64456196650823       -3.36667486087915
H           -7.95929640150815        0.59861174766906       -1.77282511514728
H           -8.56359031808042       -0.44629077843966       -3.05722525109197
H           -6.48245760134815        0.50040630599859       -0.03609590196676
H           -4.53354567112059        1.60085210326210        0.90323109642951
H           -1.57353487618266       -1.06480402676348        0.39052850844937
H            0.24564216299146        2.70182366195742       -0.45292600182600
H            1.63848263241918        2.77908918134745        1.65146029090461
H            1.90743771227142        5.06790368552859        2.50468936454177
H            3.31058058103043        6.68603829738806        1.26652111708622
H            4.44490786287821        6.00189475773281       -0.78198604255305
H            3.62610718269881        3.06928852968510       -4.07896072985813
H            2.81955005323382        4.46276401543727       -3.34208727698755
H            2.37762888509942        2.82370473776322       -2.85741247219173
H            5.82588974839539        4.04708134218253       -3.48675343637954
H            6.21954541894686        4.48520667210421       -1.81564067698880
H            5.03611550882349        5.42054964332262       -2.74515740444477
H            6.62921798710664        2.19915607020507       -2.82563499120807
H            7.13832473751598       -0.17408468088050       -2.59351032066199
H            5.54012998102934       -1.68109148584767       -1.50038766780210
H            5.22401037452813       -2.67848440616130        0.33004586246812
H            5.64496606324685       -6.16747060985082       -0.91371153254068
H            6.57610219227408       -7.08038842545112        0.27837437638038
H            4.81750625275347       -7.19114282815208        0.25834638914595
H            7.73252861927027       -5.08714813267061        1.09359509816002
H            6.92744033574981       -4.12218616725701       -0.13875726421354
H            6.86433857527941       -3.62828668572782        1.56168786038351
H            5.51229799698796       -4.99592179530578        3.22433251028583
H            6.49306056846597       -6.38539415601383        2.74582335185173
H            4.73433959790469       -6.49332903753190        2.71452091438577
H            3.02499703468915       -6.21934925566753        1.23359462890237
H            0.96039884231036       -5.02061765650370        0.91891489951619
H           -0.79014914086925       -3.51299601895233       -1.62539377134253
H           -2.88149251791624       -4.73871459939148       -1.38835324015216
H           -5.12628912766394       -4.91387399358212       -0.96209594064702
H           -5.83339165325372       -6.30926114648767       -0.15515942726398
H           -4.26242832633284       -6.46143024493671       -0.93210569777606
H           -6.18202568218403       -4.99265384048249        1.82826425713952
H           -5.35713917553212       -3.55264434012632        1.22077134626213
H           -4.85261529349892       -4.28610747187900        2.74049196092027
H           -3.24838446884203       -7.30367493781564        1.21956331854212
H           -3.52085692145428       -6.44309627044033        2.73337218157396
H           -4.86995376039824       -7.22931065495211        1.91579534161499
H           -2.62258735554112       -4.32767019629864        2.86214465535455
H           -0.53305501324786       -3.09000122793830        2.60707538524712
H           -3.54602817829516        3.43506390396295       -1.02546753546443
H           -3.77452967682564        5.68058109157236       -0.14482231696342
