114
 energy: -154.494252119335 gnorm: 0.000077516876 xtb: 6.7.1 (edcfbbe)
C           10.24257488295240        3.57045197999545        0.14134648998058
C            8.81284200114618        4.11979391490376        0.17005418698242
C            8.62759242983934        5.02933329444851       -1.05427645928429
C            8.64382521150421        4.94057865032150        1.45753110686460
C            7.76117256752574        3.02025903378433        0.13232079022694
C            6.40583620713520        3.37763080046624        0.15637649487458
C            5.38412804815393        2.45111374476778        0.10795331318718
C            5.72507137292400        1.10853694516420        0.02150854776741
C            7.08270138678573        0.71965728280207        0.02598750063902
C            8.08942345706089        1.67261141507985        0.07759121813468
C            7.09200410063159       -0.71905284997784       -0.01923469323263
C            8.11117018257656       -1.65967933623871       -0.04520436368851
C            7.80071462855860       -3.01131626785933       -0.10549249980200
C            8.86635444896539       -4.09790528123429       -0.11564814249332
C           10.28775376985578       -3.53124835655882       -0.04301406411166
C            8.74477925221460       -4.91596899563290       -1.41018534883462
C            8.65688439381379       -5.01399670340725        1.09989502124285
C            6.45081212660291       -3.38517329141193       -0.16273679402967
C            5.41702190058373       -2.47119164666996       -0.13947112158235
C            5.73946151919489       -1.12450833851282       -0.04590194885735
N            4.92391462258461       -0.01299621036872       -0.02165041346568
C            3.51925467011881       -0.02043209696689       -0.02873527010996
C            2.83531091527258       -0.84404930661105        0.85442452826009
C            1.41449893698783       -0.87061772980991        0.86277446112060
C            0.69386020956644       -1.69266413349235        1.73552511459269
C           -0.69379252935747       -1.69190469076630        1.73631171179101
C           -1.41471768498410       -0.86919545212544        0.86450450431355
C           -2.83558494075416       -0.84199506156513        0.85731373404472
C           -3.51946912261177       -0.01560725883021       -0.02305588392817
N           -4.92423098352719       -0.00679062052853       -0.01509732634241
C           -5.74128448112099       -1.11671810464786       -0.05135571104040
C           -5.42038123915287       -2.46304106512391       -0.15470941296758
C           -6.45544961424279       -3.37518573578899       -0.19042072049290
C           -7.80502775994485       -2.99967940839985       -0.13607339422910
C           -8.87235336237448       -4.08441361642603       -0.16129432390583
C           -8.74337464982233       -4.89434028384266       -1.46024774305349
C           -8.67265202403889       -5.00878922493189        1.04962049537494
C          -10.29336168252533       -3.51597976014526       -0.09498511991918
C           -8.11370470045766       -1.64819617704526       -0.06388583760005
C           -7.09329954464212       -0.70935818523288       -0.02509065806611
C           -7.08186083572945        0.72886338108486        0.03389504731227
C           -8.08687320909303        1.68321218467977        0.09262408218084
C           -7.75615465859115        3.02962662039565        0.16172772953671
C           -8.80590363421591        4.13058073350650        0.21073183131888
C           -8.64235947818760        4.92987701895033        1.51239793530309
C           -8.61224884379250        5.05978725453471       -0.99741841419847
C          -10.23646975623714        3.58456108771293        0.16481678558584
C           -6.40021989942121        3.38431931978819        0.19200082516480
C           -5.38012281762714        2.45647845293099        0.13603370169305
C           -5.72358537854422        1.11546551149863        0.03632313213197
C           -2.83579858360266        0.80451430018651       -0.90957943024905
C           -1.41492078298161        0.82338867019952       -0.92520523033502
C           -0.69423690056155        1.64271295113396       -1.80045778096910
C            0.69340913227142        1.64070737590009       -1.80243447943323
C            1.41428317675587        0.82010436506496       -0.92857117320199
C            2.83518239681137        0.79814911654868       -0.91631154854151
C            0.70526741659102       -0.02517274875953       -0.03271843056777
C           -0.70576010694544       -0.02397636370833       -0.03145717607740
H           10.42506746299818        3.00002491304054       -0.76662033468591
H           10.43741878383733        2.93988263882608        1.00592014200772
H           10.94817918717326        4.39868097969435        0.16445381456436
H            8.72579071634864        4.45049016835331       -1.97078906801437
H            7.64924571213133        5.50196827500050       -1.05379856239957
H            9.38363055806462        5.81187520723001       -1.05699902391713
H            8.74778305463381        4.29831629208664        2.33007972886738
H            9.40427019119812        5.71723625408005        1.50793788486253
H            7.66857963949829        5.41749946766915        1.50068276383824
H            6.13477324030161        4.42055369069482        0.21786472060456
H            4.35195384000856        2.76579232550401        0.14572284841145
H            9.11461612580158        1.34244036028758        0.07661661771403
H            9.13192964724656       -1.31696077855061       -0.01988197111277
H           11.00380991533690       -4.35078773939710       -0.04471050777230
H           10.50165336912004       -2.89774028538979       -0.90089660852216
H           10.43497748435306       -2.95932836738790        0.87040254658399
H            9.51574707253898       -5.68321567949548       -1.44097519280914
H            7.77685832011336       -5.40413371950853       -1.48309853505823
H            8.86623658610907       -4.26929349806626       -2.27719774773563
H            8.71839440627185       -4.43667039926756        2.02056067466872
H            9.42393048299394       -5.78537736665439        1.12374445100754
H            7.68618491315062       -5.50104242256723        1.06813487699266
H            6.19411186953980       -4.43133220311495       -0.23032061720750
H            4.38990089875019       -2.79835444766790       -0.20125230997385
H            3.37726204845902       -1.44985364570597        1.56416476721072
H            1.23182023973189       -2.33659889289574        2.41680465328414
H           -1.23160870821626       -2.33528104816438        2.41824242974021
H           -3.37750269267630       -1.44965093288653        1.56553381273990
H           -4.39340199957157       -2.79103647007386       -0.21458798242214
H           -6.20007797012067       -4.42114658088427       -0.26567381342799
H           -7.77569239700011       -5.38338678998203       -1.53010862813622
H           -8.85856956839992       -4.24217710217337       -2.32401572702173
H           -9.51507594740226       -5.66040556167895       -1.50081041041692
H           -7.70217660969325       -5.49653785232110        1.02156237232956
H           -8.74023160836303       -4.43752311782484        1.97363394323948
H           -9.44063949174407       -5.77948503070829        1.06280553015259
H          -11.01067172274828       -4.33430014512991       -0.10941115888766
H          -10.49936574053689       -2.87472760973127       -0.94905676957472
H          -10.44701445115467       -2.95173428163749        0.82213016127641
H           -9.13406684967456       -1.30425079058608       -0.03930700469264
H           -9.11269971213100        1.35509030438306        0.08631359908104
H           -8.75563812528342        4.27440205466592        2.37391019490190
H           -7.66506005930940        5.40111871350379        1.56993174258880
H           -9.39946656292417        5.70929568820009        1.56986806229124
H           -9.36853160976188        5.84207150555003       -0.99273185149904
H           -8.70389624819610        4.49584552275134       -1.92384247569313
H           -7.63423979272162        5.53285710680507       -0.98250151749503
H          -10.41367122746931        3.02718890850231       -0.75227529188928
H          -10.94068820427861        4.41375793895660        0.19474683648265
H          -10.43851204918211        2.94239396253390        1.01913642084557
H           -6.12749231597940        4.42606032239245        0.26487266956666
H           -4.34730128359364        2.76852262922427        0.17838875714356
H           -3.37844864721947        1.41584069543795       -1.61409388463466
H           -1.23218222097582        2.28665731722486       -2.48174277093651
H            1.23122170385133        2.28301319579245       -2.48538004798983
H            3.37721196030486        1.40644539715844       -1.62386409240195
