114
 energy: -175.075618877762 gnorm: 0.000071401883 xtb: 6.7.1 (edcfbbe)
C            1.35519019366779        0.43140230665305        9.13249193301056
C            2.08128078192020       -0.69498592316491        9.55456312528378
N            2.39204397917666       -1.64966306199754        8.68048988609634
C            2.10493085765227       -1.54639648229184        7.42255631349453
C            1.44686135921297       -0.41005201022640        6.84166736521817
C            1.11752417761937       -0.35441594455934        5.47295605714030
C            0.14803224493786        0.56890768047590        4.95987554175020
C           -0.11097838696804        0.66903665409983        3.62684747004852
C            0.53495919856556       -0.14581748210916        2.67069878865304
Si           0.17138711314228       -0.05218958906477        0.84061211920231
C            1.81104987404146       -0.06327262675889       -0.12154667005196
C            2.00820579515071       -0.86386637064613       -1.24207232178219
C            3.21146404876818       -0.86872856618543       -1.92135832860509
C            4.25585880032894       -0.05702158727432       -1.48823364359867
N            5.48000793965273       -0.05183976710336       -2.17476690820418
C            6.72409143990833       -0.23418399696585       -1.60670582901396
C            7.06128340106182       -0.50833531132909       -0.28782189219505
C            8.39944688854011       -0.67879797383373        0.01339935651752
C            9.38341321291003       -0.58815453179978       -0.96903471505154
C            9.05200661156486       -0.33631631547939       -2.28716449642950
C            7.71446532813528       -0.16165630638351       -2.61468083235120
C            7.02077806067068        0.08456402184605       -3.84982622511814
C            7.43784563646373        0.26929581271381       -5.16087376250914
C            6.48373831305924        0.51099378537833       -6.13140641107751
C            5.13102286563425        0.58332379640939       -5.80523477408972
C            4.69142982736373        0.40445260547127       -4.50708199874582
C            5.64326629694437        0.13936981481592       -3.53147952214049
C            4.07785240321529        0.74740353162188       -0.36560563944071
C            2.87121266004629        0.73279984078061        0.30553474835885
C           -0.79445489388848        1.52643730121486        0.42646213107983
C           -2.14432697811838        1.61804415836415        0.75688835661352
C           -2.87648094680377        2.75782583287761        0.48975088608771
C           -2.26610735764638        3.84236872372718       -0.13483853911276
N           -3.00516458160965        5.00139889679048       -0.41874818735961
C           -4.21364647424499        5.04372169728583       -1.08332122788722
C           -4.94546307815406        4.01055587002856       -1.65364016466331
C           -6.12752791379681        4.33354572688219       -2.29303856023122
C           -6.57407300370133        5.65089466721138       -2.37424165012337
C           -5.83846453226602        6.68629867855038       -1.82888792792633
C           -4.64765076557445        6.38687399029770       -1.18136940282526
C           -3.64338972398494        7.18708655473073       -0.53488724124894
C           -3.51149315742215        8.54852617169945       -0.29828243658043
C           -2.39825846376484        8.99662439771538        0.38763037355400
C           -1.43266821788966        8.10413314582116        0.84888262521806
C           -1.54242500127879        6.74429500176370        0.62686709583147
C           -2.64666565432136        6.29049432532407       -0.08232556058269
C           -0.91912266940540        3.76532598239903       -0.47831578615433
C           -0.19967357391178        2.62079672211977       -0.19289868274614
C           -0.88624212469940       -1.50749003740360        0.22192938040650
C           -1.02316046481513       -2.67434083007794        0.96780280995530
C           -1.80241579533893       -3.72543864825380        0.52443904455517
C           -2.46566145879682       -3.63126887063528       -0.69629045037911
N           -3.25299471142201       -4.69685452205449       -1.15932280577366
C           -2.85246170787604       -6.01409998105637       -1.25078922373122
C           -1.61836754265674       -6.58421465428107       -0.96738946971793
C           -1.47327153473345       -7.94329799634811       -1.17299027113868
C           -2.52235778534747       -8.72170317204750       -1.65774275980794
C           -3.74559993915896       -8.15571481424463       -1.96442462408751
C           -3.91595532789730       -6.79253652645843       -1.76558339429410
C           -5.01175947316486       -5.88859898790873       -1.98722229570676
C           -6.30779312062790       -6.05385097713632       -2.45611540348503
C           -7.13247939064684       -4.94684254334273       -2.52716388148322
C           -6.68309415150191       -3.69080990343336       -2.12493964866481
C           -5.39740322447203       -3.50132966196197       -1.65420599849119
C           -4.55657148890201       -4.60526443584093       -1.60235179321556
C           -2.34228609448699       -2.46980109678662       -1.45455954702532
C           -1.56720023841393       -1.42535193401081       -0.99094808251654
C            1.49730702753742       -1.05811577431444        3.16670118347720
C            1.76391892563165       -1.17799686302493        4.49592162007778
C            1.06807149435881        0.58504896165679        7.80722159502470
H            1.09317396647238        1.19110672985587        9.85406242436215
H            2.42857174670645       -0.82184909119467       10.56715522663006
H            2.30564162859877       -2.42357285177946        6.82336872562143
H           -0.38900409221403        1.20116392552511        5.65115814847840
H           -0.84081961690515        1.38913856939547        3.28236577103691
H            1.20728207823877       -1.50285672778042       -1.58376341181811
H            3.35598350574026       -1.51078429660810       -2.77810905166537
H            6.30454756940301       -0.59656735554060        0.47701176514311
H            8.68818312603965       -0.89071635625538        1.03252803710334
H           10.41868352210651       -0.72572971253731       -0.69361209342896
H            9.81473230574697       -0.28091125543641       -3.04931060234852
H            8.48682990278979        0.22825334560048       -5.41311525096487
H            6.78792798294454        0.65483587713147       -7.15772995862697
H            4.41034397536117        0.78742914046058       -6.58358912049213
H            3.64324721602833        0.47848930086329       -4.26014908563628
H            4.88283698679983        1.38818917458062       -0.03604332236636
H            2.74418700253632        1.35448014160845        1.18022505229831
H           -2.62757199024476        0.77979749161208        1.23782002155582
H           -3.91677688955174        2.82278880297202        0.77425096346182
H           -4.59973008141954        2.98900572520403       -1.60886459364765
H           -6.71694078597912        3.54749552728353       -2.74204852135910
H           -7.50467463533242        5.86280242247081       -2.87985569302534
H           -6.17806351652799        7.70831233734425       -1.90623000020191
H           -4.26656685436013        9.23990548510844       -0.64121507131585
H           -2.27581751293116       10.05252932396734        0.57918244155368
H           -0.58109759144873        8.48277699196586        1.39506104515925
H           -0.79843179476629        6.05844212976054        1.00284543662195
H           -0.44954362814204        4.59806403093100       -0.98156352756840
H            0.84356076032788        2.57058735465905       -0.46788966750115
H           -0.51804581287652       -2.75352788639698        1.91923373396938
H           -1.91614029814204       -4.61595515302741        1.12544237754338
H           -0.79520779669402       -5.98627276730333       -0.60678929573221
H           -0.52425253273074       -8.41168045259176       -0.95635381661192
H           -2.37058950562349       -9.78121565487841       -1.80253042723590
H           -4.55236512941562       -8.75784642446579       -2.35464444261652
H           -6.66272652100113       -7.02905420182291       -2.75399892363149
H           -8.14352192294318       -5.05457354572019       -2.89148952019627
H           -7.35590139076279       -2.84733876510166       -2.17811835003054
H           -5.06329513293696       -2.52776168434810       -1.32910757474751
H           -2.84256647153716       -2.40137553307070       -2.40966408110444
H           -1.47977121342428       -0.52719941964860       -1.58566636347050
H            2.02292254435085       -1.68640272193981        2.45961367778258
H            2.50234311564338       -1.89584103631481        4.82245948949434
H            0.59488711575694        1.49368104242486        7.46804534652543
