70
 energy: -135.965333642032 gnorm: 0.000162618468 xtb: 6.7.1 (edcfbbe)
N          -10.02146832083070        3.24697942191201        2.27905467419107
C           -9.16398632744387        2.60689136561319        1.87010807081476
C           -8.10696296362549        1.80760515098322        1.37526061393850
C           -7.93687686844401        0.50120505373498        1.84166134649783
C           -6.89030747427687       -0.25924442405637        1.37414927386622
C           -5.98672331104483        0.24535706492832        0.43202993899344
N           -4.92537080340742       -0.55675684085984        0.03158761497525
C           -5.04646637416661       -1.83524122511905       -0.49369973976177
C           -6.19042600683681       -2.55312357828505       -0.80178975576680
C           -6.02941823181409       -3.80847833565091       -1.35962481977300
C           -4.76524912353292       -4.33247452592269       -1.61448966485411
C           -3.62368773326610       -3.60951087617986       -1.32730860937236
C           -3.76025834068684       -2.34861115337607       -0.76371304589644
C           -2.81910005640123       -1.34097937380454       -0.35315145272629
C           -1.43480634610619       -1.28739603636637       -0.33473625897827
C           -0.80754488854850       -0.15580481770999        0.17191876131687
C            0.66020764942550       -0.05988346626131        0.19076269911731
C            1.43190774740104       -1.16872910545639        0.55934654348940
C            2.81150607937987       -1.12055682991520        0.59856847662622
C            3.42665147892591        0.07422616317874        0.26177067539240
C            2.67082296741552        1.19736855940126       -0.13535029905729
C            1.28748016978302        1.12862083486010       -0.16388011702051
C            3.61315169674400        2.23916823643580       -0.44596798764646
C            3.47479589973643        3.56050236214543       -0.84682325378887
C            4.61482464119495        4.32193110920761       -1.01614772270996
C            5.87631127551666        3.78923726405686       -0.76769572719156
C            6.03826679122209        2.47604466955879       -0.36507303763704
C            4.89942163933924        1.69951194116755       -0.23483747645781
N            4.77637760733885        0.38008040634562        0.18011169348963
C            5.81025311600454       -0.47912591591853        0.52981304590999
C            5.81241772691140       -1.03773382750601        1.81323614550084
C            6.83083053463192       -1.86059465144959        2.23458306744847
C            7.89196764779447       -2.14797294074293        1.37159600926605
C            8.95725871939696       -2.97141778427809        1.80502936672126
N            9.81615873846747       -3.63774905739522        2.16655084412023
C            7.88974273067250       -1.63262867736599        0.07904075183115
C            6.85084173196792       -0.81857397108116       -0.34904427665015
C            6.88610336066612       -0.39993958088990       -1.79705802972237
F            7.31793353722638       -1.41309460933988       -2.57132444839430
F            5.70264888357549       -0.03641693617567       -2.29889627221079
F            7.73753220094497        0.61703595292428       -2.02553724338411
C           -1.57969333496425        0.89540712995905        0.68160895720626
C           -2.95969317433262        0.85804489414707        0.68204849700613
C           -3.57562795152830       -0.25395535245684        0.13258522030460
C           -6.19785736343845        1.53842404733041       -0.07201509809020
C           -5.38175893837426        2.13889544316800       -1.18855890987578
F           -6.17055838937302        2.82768571136221       -2.03390937308149
F           -4.46602320624651        3.02253965449472       -0.74888136225695
F           -4.73012348874720        1.24795166488771       -1.94111778776638
C           -7.24076407873453        2.31526929954042        0.41180606445988
H           -8.61864118575491        0.10318109456247        2.57799590078342
H           -6.73342406028820       -1.25933314712886        1.74862532324606
H           -7.17561656143127       -2.14822696812494       -0.62314241764696
H           -6.90399583976914       -4.39151820525186       -1.60613696872463
H           -4.68092119018449       -5.31589982692485       -2.05162546123720
H           -2.64441196431077       -4.00965674479990       -1.54040909233996
H           -0.85367648677467       -2.10808193172625       -0.72638873641744
H            0.93108552564032       -2.08365876865281        0.83851246253052
H            3.38587860714972       -1.99138709143730        0.87859939004072
H            0.70583134231444        1.97945421376297       -0.48350102024874
H            2.49514391363541        3.98012363807335       -1.01640545370949
H            4.53004081248866        5.35025491822910       -1.33350104199010
H            6.74907248019928        4.41293676746042       -0.88696642665532
H            7.02117277454936        2.08264675574534       -0.15473252352126
H            5.00262111475997       -0.78684540036360        2.48133075396537
H            6.82603618075859       -2.27324492149352        3.23216272704059
H            8.69083973460433       -1.88351928097770       -0.60057654258382
H           -1.07947874707915        1.75082108492019        1.10976099126251
H           -3.52902203757113        1.67003049089470        1.10832861359286
H           -7.39319488844282        3.31192981545096        0.02447394024592
