70
 energy: -135.881725629229 gnorm: 0.000178884062 xtb: 6.7.1 (edcfbbe)
N           -9.83473113592085        4.10779290212579        0.01763034542888
C           -8.98574860139684        3.33536602981228        0.11076078857194
C           -7.95323036358455        2.39714905883087        0.23667568197309
C           -7.66003844001743        1.81731961515034        1.49367505437246
C           -6.63949641017768        0.91275578209702        1.60890752964685
C           -5.86103195155888        0.54768969682344        0.49940627923026
N           -4.80388729503118       -0.35375374325130        0.68057886403965
C           -4.95427514354248       -1.66251433838230        1.11578334056997
C           -6.11250574715138       -2.34024193910006        1.45526570414214
C           -5.98772487230354       -3.66457675028639        1.84566574334285
C           -4.74807749627185       -4.29143612330224        1.88820382623247
C           -3.58939822709021       -3.61752477827703        1.53202365194892
C           -3.69078203407481       -2.29337208327502        1.14017285591563
C           -2.73598030027463       -1.30696732242498        0.69781216041861
C           -1.37674063633547       -1.32350798032306        0.50937744455263
C           -0.71464818492630       -0.14610550585283        0.10159067995736
C            0.71288467170146       -0.14701285770705       -0.09787679599957
C            1.47808852714265        1.03287196890453        0.09433907616336
C            2.83848469555878        1.05880125482098       -0.06378170349560
C            3.48157316316285       -0.12326613912911       -0.44120029750938
C            2.73268159256756       -1.31047684732624       -0.69430961330003
C            1.37351267935672       -1.32539792856691       -0.50523282612492
C            3.68618502154425       -2.29817944139511       -1.13663233624476
C            3.58336463943880       -3.62265355677436       -1.52700903614361
C            4.74116941277939       -4.29792025638738       -1.88349401925341
C            5.98138046931273       -3.67206336354524       -1.84279520577937
C            6.10761411840744       -2.34744947441737       -1.45384033393302
C            4.95026035294690       -1.66843965745764       -1.11390548397084
N            4.80151731657452       -0.35922420182896       -0.67954113567221
C            5.85981640837346        0.54131674143561       -0.50045205038991
C            6.63706474472782        0.90476532335737       -1.61127289194737
C            7.65877470778748        1.80828559826650       -1.49810321367160
C            7.95441976671582        2.38854981281850       -0.24201570379094
C            8.98804170972393        3.32599467136096       -0.11822561244337
N            9.83837279062181        4.09712904755886       -0.02679200138161
C            7.21148113175670        1.99980934963923        0.88146916123067
C            6.18557641443078        1.08616030898555        0.76613207859551
C            5.48516170116076        0.65660162527881        2.02188619554950
F            6.30169815297559        0.68105304590233        3.08601893299331
F            4.44181215404643        1.45183409410888        2.34763987762829
F            4.98990851539291       -0.59324705704716        1.96825976353053
C           -1.47843772033333        1.03459480128273       -0.09135787402303
C           -2.83889593263726        1.06207059394765        0.06597461488589
C           -3.48349074474691       -0.11917826630528        0.44337418935640
C           -6.18430599420087        1.09214374578319       -0.76808471965842
C           -5.48259042065270        0.66100837269605       -2.02257671321915
F           -6.29758089011248        0.68573554842237       -3.08788366095695
F           -4.43788680790589        1.45485188690127       -2.34737016058197
F           -4.98884378084679       -0.58937265493900       -1.96750460908645
C           -7.20896836547008        2.00690646512084       -0.88551834386331
H           -8.24426612522147        2.10296183190368        2.35451659701708
H           -6.39576510760238        0.48039875556616        2.56806342396945
H           -7.07710817799152       -1.85837938445655        1.41193612016257
H           -6.87232545773082       -4.21919135120175        2.11838914200924
H           -4.68878095705116       -5.32334050005628        2.19894489635415
H           -2.63116761872890       -4.11281047298239        1.55878622400972
H           -0.81306951540585       -2.21725854834339        0.72572311546354
H            0.97848238538334        1.93189275383726        0.41638616903408
H            3.39687902713869        1.96765816266000        0.09718343919646
H            0.80875189986265       -2.21865989774309       -0.72077801783478
H            2.62472141313768       -4.11722234990135       -1.55235704875626
H            4.68074726131481       -5.33013617274993       -2.19298989033707
H            6.86527078613182       -4.22770039069778       -2.11574375797003
H            7.07262471353718       -1.86629213286750       -1.41188650718968
H            6.39146688552562        0.47201124095551       -2.56978071825490
H            8.24210495477398        2.09269823924971       -2.35997514198086
H            7.46220242463927        2.40966764083503        1.84857058967752
H           -0.97767470258337        1.93296790724604       -0.41340346071159
H           -3.39618750015426        1.97149836991255       -0.09561356562502
H           -7.45777020870375        2.41639583280160       -1.85326104979557
