70
 energy: -135.965550128976 gnorm: 0.000027928231 xtb: 6.7.1 (edcfbbe)
N           -9.82891303433256        4.08647294613912       -0.10233408221121
C           -8.98878615388702        3.31540892438457        0.00721738600674
C           -7.95273569279893        2.36380308010216        0.15536076056671
C           -7.68916701927328        1.80139319407814        1.40734895669971
C           -6.66338213120005        0.89552488043704        1.54606230882633
C           -5.87310028381509        0.51666963781162        0.45485094048728
N           -4.82603714695992       -0.37112164235762        0.66723470012789
C           -4.95016634309173       -1.62412381222820        1.25018196124138
C           -6.09119192242791       -2.28800903092976        1.66995511253321
C           -5.93859156803711       -3.56091318521705        2.18913352975744
C           -4.68658430438407       -4.16258697082405        2.27883209779429
C           -3.55024576304314       -3.51061110957080        1.84059133775436
C           -3.67823878421817       -2.23083789459198        1.31917235753894
C           -2.73985839017052       -1.28540921796373        0.77568385229908
C           -1.36401944157973       -1.29941404639730        0.61588612461510
C           -0.73070280345563       -0.17793908505144        0.09355460454758
C            0.72841597988577       -0.17735384603438       -0.09314487119070
C            1.48372729828216        0.95151249607769        0.24601027150605
C            2.85636805260549        0.98559350339225        0.09931974748624
C            3.48240268198884       -0.14846402546412       -0.39004496190395
C            2.73792657200344       -1.28189321615994       -0.77889727252383
C            1.36211339170851       -1.29692420644753       -0.61906108815089
C            3.67651772667172       -2.22541976061256       -1.32527431985043
C            3.54886632596903       -3.50364149022268       -1.85057643935418
C            4.68540182784663       -4.15402460788955       -2.29065632671556
C            5.93726450283851       -3.55233903011486       -2.19898280184411
C            6.08949998673971       -2.28095178026290       -1.67601023636443
C            4.94826058956541       -1.61858131315565       -1.25442145027915
N            4.82381496554780       -0.36734089402273       -0.66772592926357
C            5.87121590084543        0.51965597824183       -0.45346350656774
C            6.66075934509428        0.90115788035582       -1.54429694993374
C            7.68797870805339        1.80511044989249       -1.40375535323974
C            7.95383151244369        2.36283476501650       -0.15016765424487
C            8.99198681059755        3.31179196035375        0.00026741755299
N            9.83381968397634        4.08067995348903        0.11201864032879
C            7.20267180276923        1.97065901385870        0.95354905927461
C            6.17977773948091        1.04393846884258        0.81170679951934
C            5.49604123025589        0.60729543842686        2.08241718272215
F            6.38739776283616        0.49195807723008        3.08440774337599
F            4.58115169001852        1.49563071329725        2.51402578452771
F            4.88045040214008       -0.57603217288563        2.00458709446715
C           -1.48638001093320        0.95172699122473       -0.24209243734573
C           -2.85903412513684        0.98481687046734       -0.09540624086397
C           -3.48465691167051       -0.15102990060642        0.39030641152739
C           -6.17992651788034        1.04512260496170       -0.80902176978435
C           -5.49620722775695        0.61097605691966       -2.08060426399082
F           -6.38767500565586        0.49822663602054       -3.08283360071955
F           -4.58094748048963        1.49981999838855       -2.51032734284294
F           -4.88118907849811       -0.57281228238295       -2.00542748947496
C           -7.20126602324602        1.97384059511125       -0.94892547250765
H           -8.28227462536692        2.09393186388157        2.26061096874526
H           -6.43345031929432        0.47645902980137        2.51380655544138
H           -7.06870914711488       -1.83580305844016        1.58948896078689
H           -6.81067653355448       -4.09951020128770        2.52827907401994
H           -4.60846428963513       -5.15737453338989        2.69074230357333
H           -2.58174431086532       -3.98310150860148        1.89738622664771
H           -0.78843667975372       -2.16015586065352        0.92018851474005
H            0.98071443926780        1.81612348980311        0.65144118360676
H            3.41178006239806        1.87482448087289        0.35618115857042
H            0.78684908065723       -2.15692862108243       -0.92603730308895
H            2.58047252967101       -3.97615981637184       -1.90893789999066
H            4.60756171269725       -5.14757025875904       -2.70560231564583
H            6.80952866974485       -4.08973791708737       -2.53956156302180
H            7.06690309295122       -1.82876260410362       -1.59405172656337
H            6.42926055012676        0.48548710314119       -2.51313447881493
H            8.28058742777914        2.09956941645936       -2.25670357409895
H            7.43035093519078        2.37477506204218        1.92897211015890
H           -0.98365645650729        1.81779662715602       -0.64475296514165
H           -3.41478471429941        1.87464970928145       -0.34945462956800
H           -7.42736245584179        2.38137369446844       -1.92329644851090
