70
 energy: -135.881716989559 gnorm: 0.000125891117 xtb: 6.7.1 (edcfbbe)
N           -9.84432550893412        4.09623777051362        0.04551671471687
C           -8.99217232116078        3.32754976084352        0.14069162683092
C           -7.95626148048585        2.39349143843797        0.26899771485234
C           -7.65188490006422        1.82824232686270        1.53002623617431
C           -6.62824396412202        0.92744080237487        1.64735305518357
C           -5.85740478536536        0.55236446567165        0.53596063822928
N           -4.79697826862420       -0.34529704499417        0.71766433927107
C           -4.94172797210857       -1.65169423940068        1.16150873878905
C           -6.09602517089015       -2.32886955198353        1.51518873862238
C           -5.96597159424574       -3.65062815570205        1.91253360850986
C           -4.72508301966817       -4.27548716071293        1.94805083246511
C           -3.57045284442983       -3.60217449435845        1.57780170819433
C           -3.67708827246494       -2.28054687421924        1.17887518408635
C           -2.72756595658017       -1.29519379587451        0.72311777010687
C           -1.36992072896854       -1.31055796544811        0.52262064290035
C           -0.71368688409729       -0.13361207010973        0.10531095950604
C            0.71253928236151       -0.13324862787168       -0.10561474883702
C            1.47886477944421        1.04517021801180        0.08882658691754
C            2.83834284839340        1.07137008790923       -0.07801859314184
C            3.47775503819326       -0.10817165894410       -0.46906638497918
C            2.72652356823097       -1.29293321431832       -0.72661484469703
C            1.36889147070420       -1.30899491812874       -0.52609026059557
C            3.67610492467661       -2.27693121944344       -1.18515386120319
C            3.56954835929130       -3.59744842721584       -1.58776368320154
C            4.72420099816591       -4.26961051185764       -1.96002330236424
C            5.96503447125415       -3.64473598814298       -1.92287920549485
C            6.09500773431926       -2.32408568321192       -1.52183537978804
C            4.94068278109827       -1.64800958966267       -1.16615376490999
N            4.79584388756520       -0.34284789388542       -0.71868300304905
C            5.85625630642678        0.55431386136637       -0.53449079183449
C            6.62718252145378        0.93234797317844       -1.64481810054897
C            7.65093992719797        1.83268485557813       -1.52498888623739
C            7.95534595308513        2.39442982776540       -0.26239072291327
C            8.99136795373440        3.32797998256283       -0.13150588163606
N            9.84362116989516        4.09630197918020       -0.03420574968707
C            7.21845033990101        1.99097207538884        0.86003278886116
C            6.19039976053800        1.08075895251991        0.73784232856519
C            5.49581241168553        0.63432553487481        1.99088947893477
F            6.31586064488853        0.64795872935179        3.05240906859173
F            4.45132891411901        1.42260685373983        2.32984354466251
F            5.00356422579227       -0.61616121197069        1.92374593732109
C           -1.48013806236493        1.04522455646796       -0.08604039516710
C           -2.83962367134955        1.07082914035764        0.08083388302611
C           -3.47890457410110       -0.10981608327908        0.46874890468209
C           -6.19154114423077        1.08233536386953       -0.73490361158471
C           -5.49705013707522        0.63933177259494       -1.98922499574254
F           -6.31733780616294        0.65542777631492       -3.05053747051388
F           -4.45291585375491        1.42884359887826       -2.32633985733451
F           -5.00437302724020       -0.61115774555834       -1.92543450713284
C           -7.21947596858751        1.99301392620941       -0.85456361381251
H           -8.23034617292201        2.12183581248690        2.39208678686722
H           -6.37627748720117        0.50587340375238        2.60918488469589
H           -7.06156331214215       -1.84840722020057        1.47752660065554
H           -6.84734754800122       -4.20476809480190        2.19642851024297
H           -4.66161722366855       -5.30539667124308        2.26453930121138
H           -2.61132183797110       -4.09597073671633        1.59936515348643
H           -0.80244061818266       -2.20244061540780        0.73693542095559
H            0.98123219584650        1.94193385115397        0.42026141996574
H            3.39872484401344        1.97841989509388        0.08631905816337
H            0.80150964217546       -2.20036688511336       -0.74277627517188
H            2.61045875523163       -4.09126493121316       -1.61061173162583
H            4.66079528643692       -5.29862981526836       -2.27940250623700
H            6.84643126585679       -4.19798992191970       -2.20843062346220
H            7.06050937893351       -1.84364941036050       -1.48293094868095
H            6.37519842225198        0.51345679601041       -2.60781438325531
H            8.22948130928184        2.12856011562201       -2.38621520274897
H            7.47568190902460        2.38665390101633        1.83130959643694
H           -0.98260323290045        1.94291352122590       -0.41511370534078
H           -3.40011299979970        1.97823574770098       -0.08114478646813
H           -7.47669752934437        2.39139458812866       -1.82473911611765
