  70
       -135.87999521
 N         -9.7954720888        4.1400374352       -0.0257437412
 C         -8.9549688706        3.3594503274        0.0762779148
 C         -7.9318971572        2.4122912631        0.2122509544
 C         -7.6418532055        1.8462811055        1.4760558379
 C         -6.6291824875        0.9340109372        1.6016495935
 C         -5.8562159372        0.5481166928        0.4956501365
 N         -4.8030559414       -0.3563524980        0.6855927198
 C         -4.9562613739       -1.6617934832        1.1280029302
 C         -6.1162270682       -2.3340706116        1.4724961784
 C         -5.9950474879       -3.6565426421        1.8704481699
 C         -4.7569574374       -4.2863721083        1.9155336951
 C         -3.5963713533       -3.6177105488        1.5552212404
 C         -3.6938196372       -2.2953535926        1.1558189946
 C         -2.7368387274       -1.3134062640        0.7087745237
 C         -1.3769583662       -1.3314930001        0.5214011759
 C         -0.7143399056       -0.1559533170        0.1114067155
 C          0.7137365027       -0.1563742157       -0.0871425614
 C          1.4776534388        1.0229195859        0.1124393978
 C          2.8378484561        1.0514239907       -0.0488564433
 C          3.4805792625       -0.1265962836       -0.4379510717
 C          2.7323915170       -1.3130965709       -0.6977916628
 C          1.3736808800       -1.3311841266       -0.5031372934
 C          3.6854162617       -2.2952472333       -1.1521420099
 C          3.5828240075       -3.6163436571       -1.5542068036
 C          4.7402293336       -4.2869284284       -1.9208107738
 C          5.9798456106       -3.6599214242       -1.8790660297
 C          6.1058240015       -2.3384077884       -1.4792828748
 C          4.9489640512       -1.6638428666       -1.1290559481
 N          4.8000186476       -0.3588014852       -0.6832513257
 C          5.8560273396        0.5429054261       -0.4980142753
 C          6.6302023466        0.9202406656       -1.6063044810
 C          7.6461510740        1.8295502226       -1.4862593976
 C          7.9384853078        2.4019389945       -0.2259309291
 C          8.9642678310        3.3468474913       -0.0955493326
 N          9.8079116659        4.1246782839        0.0001953784
 C          7.1997485317        1.9981701374        0.8951262431
 C          6.1800414193        1.0784764326        0.7728536701
 C          5.4854061839        0.6321710346        2.0261025101
 F          6.3060298549        0.6475393508        3.0873771671
 F          4.4406255878        1.4199386159        2.3646417049
 F          4.9946740808       -0.6187236441        1.9603315514
 C         -1.4760042651        1.0248410603       -0.0875255291
 C         -2.8370122187        1.0535608585        0.0660822968
 C         -3.4821914353       -0.1254885049        0.4478024019
 C         -6.1770847136        1.0781849385       -0.7781775717
 C         -5.4794939530        0.6242019400       -2.0269235027
 F         -6.2929166532        0.6461605742       -3.0933794909
 F         -4.4248057206        1.4016518229       -2.3594146957
 F         -5.0006469779       -0.6311926187       -1.9564433586
 C         -7.1938227095        2.0003734955       -0.9062696243
 H         -8.2217495566        2.1487515764        2.3340812850
 H         -6.3874169161        0.5119233338        2.5658555348
 H         -7.0791906899       -1.8490689078        1.4273856570
 H         -6.8809626023       -4.2071664807        2.1470232694
 H         -4.7003404824       -5.3167422128        2.2318856241
 H         -2.6396737196       -4.1158107188        1.5847853655
 H         -0.8134824754       -2.2248064432        0.7404253124
 H          0.9775799446        1.9186900817        0.4428044914
 H          3.3956328592        1.9596252720        0.1179597325
 H          0.8089525669       -2.2239114503       -0.7212625499
 H          2.6246151865       -4.1117073389       -1.5805805661
 H          4.6799220039       -5.3165112581       -2.2389736584
 H          6.8634815481       -4.2121337378       -2.1595963402
 H          7.0704267772       -1.8564421383       -1.4370195530
 H          6.3867095894        0.4940867125       -2.5682785375
 H          8.2270114722        2.1247418979       -2.3461637463
 H          7.4486236337        2.4013605249        1.8654926165
 H         -0.9732754645        1.9212808073       -0.4118366631
 H         -3.3941240779        1.9620433939       -0.1013972484
 H         -7.4410937242        2.3988655891       -1.8789677782
