  70
       -135.96549407
 N         -9.8692816083        4.0403554839       -0.1317171355
 C         -9.0208655767        3.2794454046       -0.0150311691
 C         -7.9736856826        2.3415190680        0.1419636711
 C         -7.7084551798        1.7882020563        1.3976220145
 C         -6.6737169632        0.8938057682        1.5442120009
 C         -5.8759182966        0.5176563447        0.4575268436
 N         -4.8235447530       -0.3620418180        0.6773773240
 C         -4.9442670746       -1.6162072362        1.2589121314
 C         -6.0832893733       -2.2840134022        1.6779084602
 C         -5.9268991373       -3.5570515370        2.1956670579
 C         -4.6731593778       -4.1551740349        2.2847893306
 C         -3.5387873779       -3.4993111704        1.8473094207
 C         -3.6706742212       -2.2193657018        1.3273272778
 C         -2.7351256077       -1.2710850068        0.7841354969
 C         -1.3596901253       -1.2825784742        0.6217789158
 C         -0.7292713720       -0.1599598709        0.0983186139
 C          0.7291450355       -0.1602072693       -0.0936986031
 C          1.4881369612        0.9667208839        0.2434484141
 C          2.8606430388        0.9968542935        0.0938776951
 C          3.4825579553       -0.1391249540       -0.3963471940
 C          2.7339793305       -1.2699640354       -0.7848323662
 C          1.3585588131       -1.2810484926       -0.6221786601
 C          3.6687571292       -2.2164750342       -1.3324698630
 C          3.5361755958       -3.4942681740       -1.8575719693
 C          4.6701030406       -4.1487619124       -2.2982700894
 C          5.9241308319       -3.5514642550       -2.2075070674
 C          6.0812425905       -2.2805814716       -1.6847319883
 C          4.9426625509       -1.6141500648       -1.2623492942
 N          4.8229666787       -0.3625899939       -0.6752733331
 C          5.8748440924        0.5178972520       -0.4560366033
 C          6.6683032632        0.8991866973       -1.5440421636
 C          7.7014611528        1.7954764348       -1.3978273820
 C          7.9694351763        2.3453291595       -0.1412353271
 C          9.0151496946        3.2850141588        0.0152224696
 N          9.8624700817        4.0470719219        0.1323549547
 C          7.2137932499        1.9535257392        0.9595753139
 C          6.1848304774        1.0344898319        0.8119853425
 C          5.4957156998        0.5962393885        2.0792603882
 F          6.3831230973        0.4764643674        3.0842147389
 F          4.5809301212        1.4850045558        2.5099409297
 F          4.8782577817       -0.5858247541        1.9959384915
 C         -1.4873105241        0.9691173061       -0.2337646069
 C         -2.8598477343        0.9996421691       -0.0844592222
 C         -3.4828490473       -0.1381482184        0.4001884559
 C         -6.1829423402        1.0378678047       -0.8097612950
 C         -5.4889468049        0.6056644089       -2.0764532304
 F         -6.3727745781        0.4884261239       -3.0848247515
 F         -4.5741593790        1.4976297627       -2.5006139664
 F         -4.8698899838       -0.5757610085       -1.9957979514
 C         -7.2134964686        1.9550872459       -0.9575963144
 H         -8.3079183339        2.0782145924        2.2473018877
 H         -6.4431399816        0.4813844646        2.5146499364
 H         -7.0622423653       -1.8348486658        1.5978648107
 H         -6.7974312696       -4.0986368176        2.5340563469
 H         -4.5921116556       -5.1502265894        2.6954831079
 H         -2.5688338445       -3.9688882754        1.9034831023
 H         -0.7820860684       -2.1425676663        0.9243339954
 H          0.9883789846        1.8327513640        0.6498889203
 H          3.4192497944        1.8844108393        0.3496794146
 H          0.7801721598       -2.1392288475       -0.9283663550
 H          2.5660501703       -3.9633156104       -1.9152087710
 H          4.5884879033       -5.1421863630       -2.7127863447
 H          6.7942821103       -4.0921002013       -2.5483802112
 H          7.0603202232       -1.8319146309       -1.6033903534
 H          6.4355210746        0.4893495017       -2.5150526778
 H          8.2974831231        2.0896821873       -2.2484792531
 H          7.4429188439        2.3515682184        1.9371450729
 H         -0.9867810344        1.8366395398       -0.6360613797
 H         -3.4176762355        1.8888077314       -0.3363580630
 H         -7.4399632646        2.3563020344       -1.9345053120
