  49
        -80.71132741
 C          4.9516497864       -1.2501865725        2.1565633482
 C          4.8491590666       -0.8262346821        0.6914776119
 C          5.9631210018        0.1737561136        0.3665422328
 C          4.9631827119       -2.0406293762       -0.2393402098
 N          3.5637053554       -0.1720110591        0.4656646060
 C          2.3561793645       -0.8168477814        0.7449595224
 O          2.2743153467       -1.8721789363        1.3958590934
 C          1.2663696733       -0.1160898798        0.1604869505
 C         -0.0956811598       -0.4323551934        0.2893144532
 C         -1.0351688534        0.3973214874       -0.2818317857
 N         -2.3900681325        0.1142983955       -0.1359917862
 C         -3.3623183772        1.0172425907        0.2390098535
 C         -3.2336487049        2.3552532997        0.5905185170
 C         -4.3818336276        3.0406266357        0.9477299740
 C         -5.6231252226        2.4107267673        0.9723222397
 C         -5.7529252293        1.0673161416        0.6527008007
 C         -4.6184164949        0.3618956796        0.2900146151
 C         -4.3740720390       -1.0113438940       -0.0700311183
 C         -5.1902765667       -2.1212516525       -0.2077825231
 C         -4.6158598323       -3.3195789061       -0.6043904630
 C         -3.2539865315       -3.4093346295       -0.8791070595
 C         -2.4186071887       -2.3136058184       -0.7473879378
 C         -2.9829777690       -1.1179214572       -0.3209086456
 C         -0.6492344154        1.5591748596       -1.0269670321
 C          0.6972949638        1.8502231544       -1.1842983119
 C          1.6341917269        1.0266557904       -0.6177149873
 S          3.3885854786        1.0783603676       -0.6828100680
 O          3.9053479103        0.6567656485       -1.9555602348
 O          3.9237442366        2.2954755241       -0.1476966898
 H          4.1394747307       -1.9346819966        2.3978738693
 H          4.8753960191       -0.3812365623        2.8060288881
 H          5.9010396730       -1.7492537592        2.3312297402
 H          5.9390418245        0.4413985477       -0.6857345979
 H          6.9257320127       -0.2755804698        0.5981944552
 H          5.8379533407        1.0803682596        0.9522420053
 H          5.9367468491       -2.5098700975       -0.1262255288
 H          4.8361648627       -1.7218938764       -1.2717104548
 H          4.1891533733       -2.7635493806        0.0094066076
 H         -0.3892009206       -1.2769839021        0.8928977339
 H         -2.2693871691        2.8385469061        0.6006691989
 H         -4.3113823565        4.0820523429        1.2214189012
 H         -6.4966729004        2.9765758400        1.2583672263
 H         -6.7151017082        0.5804163910        0.6908278042
 H         -6.2499048205       -2.0522021522       -0.0160726790
 H         -5.2357134384       -4.1963509424       -0.7144000225
 H         -2.8405368952       -4.3514009380       -1.2043249776
 H         -1.3674089899       -2.3849489459       -0.9774684657
 H         -1.4065375348        2.1365027473       -1.5294763992
 H          1.0130132548        2.7022534061       -1.7658812128
