  49
        -80.71132741
 C          4.9516497864       -1.2501865725        2.1565633482
 C          4.8491590666       -0.8262346821        0.6914776119
 C          5.9631210018        0.1737561136        0.3665422328
 C          4.9631827119       -2.0406293762       -0.2393402098
 N          3.5637053554       -0.1720110591        0.4656646060
 C          2.3561793645       -0.8168477814        0.7449595224
 O          2.2743153467       -1.8721789363        1.3958590934
 C          1.2663696733       -0.1160898798        0.1604869505
 C         -0.0956811598       -0.4323551934        0.2893144532
 C         -1.0351688534        0.3973214874       -0.2818317857
 N         -2.3900681325        0.1142983955       -0.1359917862
 C         -3.3623183772        1.0172425907        0.2390098535
 C         -3.2336487049        2.3552532997        0.5905185170
 C         -4.3818336276        3.0406266357        0.9477299740
 C         -5.6231252226        2.4107267673        0.9723222397
 C         -5.7529252293        1.0673161416        0.6527008007
 C         -4.6184164949        0.3618956796        0.2900146151
 C         -4.3740720390       -1.0113438940       -0.0700311183
 C         -5.1902765667       -2.1212516525       -0.2077825231
 C         -4.6158598323       -3.3195789061       -0.6043904630
 C         -3.2539865315       -3.4093346295       -0.8791070595
 C         -2.4186071887       -2.3136058184       -0.7473879378
 C         -2.9829777690       -1.1179214572       -0.3209086456
 C         -0.6492344154        1.5591748596       -1.0269670321
 C          0.6972949638        1.8502231544       -1.1842983119
 C          1.6341917269        1.0266557904       -0.6177149873
 S          3.3885854786        1.0783603676       -0.6828100680
 O          3.9053479103        0.6567656485       -1.9555602348
 O          3.9237442366        2.2954755241       -0.1476966898
 H          4.1394747307       -1.9346819966        2.3978738693
 H          4.8753960191       -0.3812365623        2.8060288881
 H          5.9010396730       -1.7492537592        2.3312297402
 H          5.9390418245        0.4413985477       -0.6857345979
 H          6.9257320127       -0.2755804698        0.5981944552
 H          5.8379533407        1.0803682596        0.9522420053
 H          5.9367468491       -2.5098700975       -0.1262255288
 H          4.8361648627       -1.7218938764       -1.2717104548
 H          4.1891533733       -2.7635493806        0.0094066076
 H         -0.3892009206       -1.2769839021        0.8928977339
 H         -2.2693871691        2.8385469061        0.6006691989
 H         -4.3113823565        4.0820523429        1.2214189012
 H         -6.4966729004        2.9765758400        1.2583672263
 H         -6.7151017082        0.5804163910        0.6908278042
 H         -6.2499048205       -2.0522021522       -0.0160726790
 H         -5.2357134384       -4.1963509424       -0.7144000225
 H         -2.8405368952       -4.3514009380       -1.2043249776
 H         -1.3674089899       -2.3849489459       -0.9774684657
 H         -1.4065375348        2.1365027473       -1.5294763992
 H          1.0130132548        2.7022534061       -1.7658812128
  49
        -80.71124467
 C          4.8808497326       -2.0949110196       -0.2694099404
 C          4.8465700820       -0.8574226955        0.6371806953
 C          5.0006275826       -1.2526497790        2.1055719970
 C          5.9760752931        0.0988128266        0.2415411304
 N          3.5734002402       -0.1669001764        0.4509253990
 C          2.3604031684       -0.7697577535        0.7945856547
 O          2.2741004554       -1.7943335942        1.4926374603
 C          1.2688768003       -0.0722800355        0.2097016107
 C         -0.0935555084       -0.3700792683        0.3711786183
 C         -1.0351083982        0.4287128329       -0.2398120941
 N         -2.3881953687        0.1410330861       -0.0899973116
 C         -3.3810552920        1.0507082328        0.2070883205
 C         -3.2811736435        2.4106096587        0.4740608406
 C         -4.4478160046        3.0990669777        0.7579938436
 C         -5.6801401441        2.4523603237        0.7945866246
 C         -5.7818959306        1.0888721284        0.5622956682
 C         -4.6285473938        0.3801056974        0.2735121234
 C         -4.3572115493       -1.0092365201        0.0074826055
 C         -5.1548644958       -2.1381313230       -0.0735540851
 C         -4.5562418234       -3.3503439654       -0.3822068986
 C         -3.1887781538       -3.4356356139       -0.6284837857
 C         -2.3720235737       -2.3207723985       -0.5527889963
 C         -2.9602815910       -1.1097473091       -0.2099081651
 C         -0.6499016798        1.5508243544       -1.0440018671
 C          0.6967208428        1.8266632581       -1.2265240424
 C          1.6352085076        1.0276951347       -0.6280041358
 S          3.3881618528        1.0422872030       -0.7403224021
 O          3.8564192822        0.5613141902       -2.0111178475
 O          3.9648946074        2.2663002683       -0.2684708209
 H          5.8441231794       -2.5916311758       -0.1905089295
 H          4.7155890291       -1.7946265216       -1.3019228622
 H          4.0980078620       -2.7882643594        0.0309515430
 H          5.9374687343       -1.7845025051        2.2484098794
 H          4.1751352948       -1.8993564942        2.3997706036
 H          4.9875169813       -0.3677424291        2.7370911774
 H          5.9190631436        0.3385941485       -0.8160806998
 H          6.9334086982       -0.3733728051        0.4485608310
 H          5.9009695573        1.0242675865        0.8061020539
 H         -0.3847984127       -1.1803417365        1.0211771451
 H         -2.3251447712        2.9099962458        0.4760362827
 H         -4.3995041848        4.1572883386        0.9635860867
 H         -6.5689218712        3.0217368571        1.0202235615
 H         -6.7373102703        0.5896458235        0.6087014492
 H         -6.2186393095       -2.0733904156        0.0952183469
 H         -5.1609606031       -4.2421516847       -0.4455830102
 H         -2.7555164077       -4.3894568004       -0.8867371596
 H         -1.3167794782       -2.3908059773       -0.7635906757
 H         -1.4075710194        2.1047157739       -1.5716994806
 H          1.0110050327        2.6458225314       -1.8544469225
  49
        -80.71080013
 C          5.0346696295       -1.9010367620       -0.4629079943
 C          4.8560508739       -0.8397224699        0.6301492855
 C          4.9396255642       -1.4681908864        2.0202033139
 C          5.9438883576        0.2318131975        0.4941719867
 N          3.5598178144       -0.1908049676        0.4537439118
 C          2.3542501466       -0.8501230800        0.6979443270
 O          2.2632472034       -1.9271679416        1.3120198529
 C          1.2654432558       -0.1402218563        0.1208399835
 C         -0.0962823263       -0.4550097824        0.2519818174
 C         -1.0371758557        0.3551220547       -0.3458418566
 N         -2.3919425705        0.0912571938       -0.1728959438
 C         -3.3529786811        1.0286535923        0.1479058650
 C         -3.2142631790        2.3901651402        0.3881838555
 C         -4.3538004696        3.1093230027        0.7044793734
 C         -5.5970921767        2.4908385965        0.8019237352
 C         -5.7360286513        1.1257903217        0.6008696791
 C         -4.6103339356        0.3870822435        0.2788785301
 C         -4.3790799016       -1.0129810087        0.0342390485
 C         -5.2024104583       -2.1261173052        0.0228063459
 C         -4.6432509383       -3.3593189202       -0.2756871139
 C         -3.2907764791       -3.4802202355       -0.5829692765
 C         -2.4489395056       -2.3814386469       -0.5776617400
 C         -2.9949515372       -1.1488042984       -0.2410927844
 C         -0.6478020195        1.4906402880       -1.1296630567
 C          0.6969800299        1.8036517849       -1.2547331463
 C          1.6332501287        1.0084286389       -0.6481327449
 S          3.3852985275        1.1234212124       -0.6235881617
 O          3.9831452288        0.8091394571       -1.8917934300
 O          3.8414922788        2.3226346485        0.0155378047
 H          4.9348152904       -1.4357256813       -1.4409399482
 H          4.2728362647       -2.6703713570       -0.3550742084
 H          6.0159431545       -2.3611285014       -0.3830565757
 H          5.8971222499       -1.9676029175        2.1418071078
 H          4.1379187866       -2.1959446470        2.1430464470
 H          4.8288124958       -0.7059590777        2.7876419672
 H          6.9137272178       -0.2134773737        0.7023440360
 H          5.7617014270        1.0423316630        1.1949522783
 H          5.9493138864        0.6439144881       -0.5104445352
 H         -0.3882718308       -1.2792845189        0.8835995576
 H         -2.2485270167        2.8686832563        0.3489135315
 H         -4.2736396680        4.1692183362        0.8905592205
 H         -6.4634252068        3.0832626534        1.0538689105
 H         -6.6985979547        0.6477901065        0.6970107225
 H         -6.2555755688       -2.0332382006        0.2385113536
 H         -5.2679969836       -4.2394769194       -0.2843704670
 H         -2.8897635109       -4.4499216500       -0.8340594758
 H         -1.4068558101       -2.4810597541       -0.8362683567
 H         -1.3990563476        2.0363116812       -1.6746395113
 H          1.0128945500        2.6516508491       -1.8422170145
  49
        -80.71059624
 C          5.0384529144       -1.8733164487       -0.5440982604
 C          4.8648365809       -0.8552872232        0.5901615725
 C          4.9597719543       -1.5364459317        1.9544076290
 C          5.9492226547        0.2238317151        0.4890476349
 N          3.5660592599       -0.2030889370        0.4457784600
 C          2.3619174753       -0.8670082059        0.6834937371
 O          2.2736451064       -1.9574689813        1.2736211763
 C          1.2692104404       -0.1449221284        0.1284528016
 C         -0.0916660058       -0.4617324201        0.2619348255
 C         -1.0362733625        0.3507919207       -0.3274241098
 N         -2.3904708628        0.0855704436       -0.1567439739
 C         -3.3554590009        1.0271618469        0.1411480667
 C         -3.2197943839        2.3904538666        0.3738801451
 C         -4.3646124882        3.1144746811        0.6584792579
 C         -5.6110225076        2.4992717948        0.7344876866
 C         -5.7471996026        1.1321263134        0.5467160384
 C         -4.6158940891        0.3887351042        0.2566728217
 C         -4.3823959673       -1.0140953818        0.0320800414
 C         -5.2078475465       -2.1256800609        0.0239943261
 C         -4.6471553292       -3.3638781937       -0.2494875880
 C         -3.2910390009       -3.4904184823       -0.5375220240
 C         -2.4473510021       -2.3928878229       -0.5360834526
 C         -2.9944425952       -1.1549333228       -0.2211903226
 C         -0.6491935225        1.4937424589       -1.1029688093
 C          0.6938576906        1.8160401781       -1.2195675662
 C          1.6330113721        1.0173014347       -0.6221123603
 S          3.3835882024        1.1452127671       -0.5866059589
 O          3.9882531607        0.8812413623       -1.8630130129
 O          3.8279676551        2.3253795540        0.0951804861
 H          4.9314719993       -1.3708060522       -1.5028233228
 H          4.2791278906       -2.6482621090       -0.4612867097
 H          6.0213166415       -2.3336626735       -0.4884914403
 H          5.9181097186       -2.0402909260        2.0482114387
 H          4.1589296947       -2.2682589661        2.0568054786
 H          4.8562581047       -0.8041016541        2.7514072459
 H          5.7665637818        1.0082237273        1.2190221794
 H          5.9506719509        0.6715030306       -0.5002563350
 H          6.9210773166       -0.2255173800        0.6785212144
 H         -0.3795173819       -1.2903215669        0.8896766007
 H         -2.2528773820        2.8676614177        0.3528018108
 H         -4.2864166716        4.1761054762        0.8352589701
 H         -6.4819229427        3.0959449664        0.9591851974
 H         -6.7121360065        0.6561028282        0.6276759228
 H         -6.2634688718       -2.0277270098        0.2250123656
 H         -5.2728665062       -4.2433820041       -0.2526116661
 H         -2.8880554839       -4.4639352847       -0.7700170437
 H         -1.4030362976       -2.4990209165       -0.7823993949
 H         -1.4008551179        2.0385018867       -1.6482127068
 H          1.0066195987        2.6734601936       -1.7949786218
  49
        -80.71053997
 C          5.0336967683       -1.5429586543        1.9027131568
 C          4.8208010274       -0.9797677670        0.4981850828
 C          5.9792773617       -0.0428309837        0.1421129587
 C          4.7354103268       -2.1096773213       -0.5367914527
 N          3.5792414919       -0.2108011371        0.4617020215
 C          2.3568059057       -0.7887503191        0.8150234418
 O          2.2535292051       -1.8556765756        1.4440434921
 C          1.2715469539       -0.0176695959        0.3171778943
 C         -0.0920902570       -0.3117135708        0.4676987230
 C         -1.0314323184        0.5079027539       -0.1204816119
 N         -2.3807502681        0.1843704803       -0.0322383250
 C         -3.4189565707        1.0565185940        0.2210939054
 C         -3.3828622009        2.4126310199        0.5225262902
 C         -4.5884315466        3.0592813236        0.7337969187
 C         -5.7993400569        2.3753681282        0.6683909004
 C         -5.8399077798        1.0138848053        0.4084048775
 C         -4.6465449925        0.3469408564        0.1913893856
 C         -4.3156920843       -1.0273625167       -0.0829216097
 C         -5.0723344214       -2.1775914290       -0.2319086419
 C         -4.4202345436       -3.3650924527       -0.5274190752
 C         -3.0396296974       -3.4028388259       -0.6998090838
 C         -2.2638964602       -2.2653239801       -0.5570861311
 C         -2.9060411268       -1.0807046874       -0.2179076596
 C         -0.6387754882        1.6703926211       -0.8625436563
 C          0.7089411565        1.9542971447       -1.0191911681
 C          1.6448448834        1.1251778852       -0.4570873509
 S          3.3948618551        1.1085594673       -0.6078423589
 O          3.8118632188        0.7388870446       -1.9329632446
 O          4.0230009783        2.2643045999       -0.0400138289
 H          4.1926160240       -2.1795217647        2.1745168715
 H          5.1009395945       -0.7341683827        2.6262894493
 H          5.9480642861       -2.1298601380        1.9298818753
 H          5.9835230629        0.8181857435        0.8051707888
 H          5.8818875150        0.3125855103       -0.8792175227
 H          6.9185980752       -0.5812203455        0.2436824361
 H          5.6702481152       -2.6627432544       -0.5681871224
 H          4.5352329528       -1.6877747926       -1.5193131274
 H          3.9297774160       -2.7900732652       -0.2687400220
 H         -0.3861777038       -1.1486262218        1.0814110638
 H         -2.4469945087        2.9424904683        0.6036042154
 H         -4.5889162269        4.1145563714        0.9592200655
 H         -6.7200073857        2.9134541470        0.8352426769
 H         -6.7793169308        0.4839373592        0.3774477253
 H         -6.1454080884       -2.1478568597       -0.1229350210
 H         -4.9916283510       -4.2740469880       -0.6381391097
 H         -2.5620001311       -4.3365416705       -0.9530486898
 H         -1.1983957145       -2.3007858460       -0.7178917584
 H         -1.3896122108        2.2478405406       -1.3740399654
 H          1.0272349705        2.8043523337       -1.6024357467
  49
        -80.71053661
 C          4.9784729211       -2.3281279609        0.4496633316
 C          4.8557488617       -0.8224867207        0.7029732181
 C          4.9316058108       -0.5155111722        2.2016397692
 C          5.9766157387       -0.0908827151       -0.0385765496
 N          3.5706104194       -0.3512238276        0.1892429636
 C          2.3647791800       -0.8681079055        0.6481418327
 O          2.2803087488       -1.8324913870        1.4263157763
 C          1.2665086142       -0.1626957781        0.0767932796
 C         -0.0935587138       -0.4392255326        0.2699101444
 C         -1.0388365704        0.3675910780       -0.3284138309
 N         -2.3913569635        0.1093796851       -0.1378990792
 C         -3.3530084436        1.0452094123        0.1815711187
 C         -3.2125653879        2.4050741415        0.4285311564
 C         -4.3516755439        3.1231033458        0.7513696730
 C         -5.5952260799        2.5037993108        0.8440232186
 C         -5.7367423999        1.1404192312        0.6306260363
 C         -4.6116974736        0.4021627911        0.3043972592
 C         -4.3804428001       -0.9954880330        0.0485082390
 C         -5.2036538555       -2.1088249532        0.0137134160
 C         -4.6421426311       -3.3375861067       -0.3007340959
 C         -3.2871071483       -3.4560880402       -0.5974108577
 C         -2.4445500873       -2.3573228160       -0.5672203414
 C         -2.9940497107       -1.1299465205       -0.2191023076
 C         -0.6530618202        1.4803415998       -1.1476333789
 C          0.6921721929        1.7545851060       -1.3335846861
 C          1.6329852688        0.9442382201       -0.7519412014
 S          3.3863350464        1.0507920716       -0.7571013687
 O          3.9492319384        0.8376252194       -2.0582371403
 O          3.8670259208        2.1943245868       -0.0319760672
 H          4.1721402692       -2.8477174293        0.9636486559
 H          5.9321314234       -2.6907963903        0.8236208604
 H          4.9092562611       -2.5360585817       -0.6156188511
 H          5.8913251585       -0.8321678604        2.6010628537
 H          4.1385371047       -1.0452973133        2.7249039232
 H          4.8108573446        0.5531485890        2.3637714956
 H          5.9016004628       -0.2649429184       -1.1086848630
 H          6.9379141693       -0.4531704239        0.3177432251
 H          5.9100501123        0.9794907679        0.1382413285
 H         -0.3820592752       -1.2390963575        0.9341386213
 H         -2.2462549950        2.8825691824        0.3882720938
 H         -4.2716058810        4.1819964962        0.9439343378
 H         -6.4615123518        3.0949731036        1.0997576092
 H         -6.7003506955        0.6634771860        0.7215408397
 H         -6.2585464827       -2.0197263402        0.2222783308
 H         -5.2676502509       -4.2168521239       -0.3285873098
 H         -2.8845634189       -4.4222441988       -0.8592189308
 H         -1.3997008927       -2.4521365829       -0.8166251915
 H         -1.4129105826        2.0347957777       -1.6716160885
 H          1.0053355120        2.5832779463       -1.9494737531
  49
        -80.71042888
 C          4.8394200526       -0.4199975866        2.2173286433
 C          4.8428021445       -0.8022028652        0.7334785354
 C          5.9772112465       -0.0724727817        0.0087781470
 C          5.0198970700       -2.3117281374        0.5584576162
 N          3.5734603683       -0.3897252667        0.1371847022
 C          2.3608758968       -0.9358215202        0.5505911167
 O          2.2693954975       -1.9455727702        1.2710212220
 C          1.2676050447       -0.1984202261        0.0166006111
 C         -0.0954126129       -0.4899114124        0.1814246572
 C         -1.0357451985        0.3622706853       -0.3564520331
 N         -2.3907940149        0.0967781165       -0.1780329838
 C         -3.3365786861        1.0020108802        0.2536668360
 C         -3.1778411425        2.3299806508        0.6296361529
 C         -4.3018356929        3.0183241131        1.0534723050
 C         -5.5476237716        2.4001905940        1.1173367771
 C         -5.7070383742        1.0666478632        0.7697360881
 C         -4.5975381994        0.3584762717        0.3405275665
 C         -4.3843788115       -1.0074913290       -0.0629203462
 C         -5.2173611242       -2.1054423032       -0.1972856190
 C         -4.6718894025       -3.2983579286       -0.6487808138
 C         -3.3229035118       -3.3954639904       -0.9791879618
 C         -2.4703981759       -2.3121321600       -0.8503404837
 C         -3.0048913244       -1.1229572502       -0.3706688725
 C         -0.6495829303        1.5310686651       -1.0877422821
 C          0.6971855934        1.8195654051       -1.2466421085
 C          1.6350207121        0.9687064103       -0.7224919772
 S          3.3866028194        1.0996832228       -0.6686768699
 O          3.9930015944        1.0228883640       -1.9647296454
 O          3.8229117257        2.1755634799        0.1791249786
 H          4.0444765980       -0.9558474449        2.7318771656
 H          4.6692776440        0.6499419093        2.3176709141
 H          5.7914561792       -0.6758876707        2.6746567914
 H          5.9337839521       -0.2702432089       -1.0587506997
 H          6.9316758692       -0.4163560560        0.3999991443
 H          5.8943331980        0.9999455538        0.1607567288
 H          5.9551269840       -2.6305518263        1.0107215818
 H          5.0244419879       -2.5706452607       -0.4976645761
 H          4.1933526148       -2.8305478672        1.0420611735
 H         -0.3876926453       -1.3389200558        0.7797041112
 H         -2.2086680683        2.8027273246        0.6089143155
 H         -4.2079351399        4.0518432653        1.3487965028
 H         -6.4013824611        2.9672891596        1.4558707680
 H         -6.6722316065        0.5891449420        0.8380566705
 H         -6.2676495682       -2.0318050869        0.0387384097
 H         -5.3057821828       -4.1650450037       -0.7583414253
 H         -2.9337259730       -4.3323665661       -1.3463692698
 H         -1.4295994282       -2.3864568330       -1.1232058346
 H         -1.4085842766        2.1284686377       -1.5636257331
 H          1.0124723572        2.6941269067       -1.7941619144
