  73
       -103.06834215
 C          2.8842041950        3.9377947882        1.2062898179
 C          1.7501943461        2.9757977635        1.0576527925
 C          0.7204607578        3.2227616867        0.1508227084
 C         -0.3259029207        2.3395240703       -0.0130840907
 C         -1.4190222606        2.6726920169       -0.9794431038
 C         -0.3469941105        1.1173662032        0.7011904428
 B         -1.3230649324       -0.0421103870        0.3072081064
 C         -0.8203708754       -1.4402888240        0.0022707077
 C         -1.6857439579       -2.5709204146        0.1069064922
 C         -1.2559752868       -3.8591611701        0.0576713006
 C          0.1218742272       -4.1434683516       -0.1541068257
 C          0.5784759879       -5.4568808151       -0.2432689748
 N          0.9589598107       -6.5453956762       -0.2931140387
 C          1.0043285013       -3.0677901001       -0.3194998858
 C          0.5657476294       -1.7633729353       -0.2830708341
 N          1.5221149863       -0.7615164647       -0.4805091404
 C          2.7166322921       -0.6570434762        0.2001247850
 C          3.2129647282       -1.4321304158        1.2411594790
 C          4.4414746016       -1.0881570886        1.7743138322
 C          5.1646716153       -0.0011353517        1.2902632784
 C          4.6780988712        0.7730494999        0.2507313238
 C          3.4498793505        0.4467504598       -0.2990530201
 C          2.6668869800        1.0008066477       -1.3714604064
 C          2.8732435022        2.0366855351       -2.2672718264
 C          1.9252856176        2.2587509113       -3.2504533489
 C          0.8016144050        1.4451834981       -3.3599388811
 C          0.5740829733        0.4083358608       -2.4741605254
 C          1.4981432513        0.2101344517       -1.4598288579
 C         -2.8876296002        0.2419242793        0.2534114806
 C         -3.5239048322        0.8153108462        1.3668869717
 C         -2.7615506786        1.1439610517        2.6154113459
 C         -4.8905919687        1.0435977465        1.3522067956
 C         -5.6704647795        0.7304038840        0.2482153815
 C         -7.1495765566        0.9715500028        0.2599513478
 C         -5.0405598749        0.1731406664       -0.8499630503
 C         -3.6717560502       -0.0697102085       -0.8667418243
 C         -3.0988008916       -0.6128392942       -2.1446671128
 C          0.6226941312        0.9391405976        1.7170217281
 C          0.5416477858       -0.1918478262        2.6970137302
 C          1.6604301665        1.8446684432        1.8564349801
 H          3.1487559904        4.3684162156        0.2426792979
 H          3.7553158780        3.4432243292        1.6299422883
 H          2.6006956682        4.7555336785        1.8706876469
 H          0.7516820046        4.1253101275       -0.4438212450
 H         -1.5942408437        1.8420751968       -1.6572045479
 H         -1.1633301020        3.5556647714       -1.5607014239
 H         -2.3493059946        2.8635312929       -0.4452610141
 H         -2.7340845917       -2.3719675662        0.2793729803
 H         -1.9455193592       -4.6821210553        0.1741926496
 H          2.0426116484       -3.2699114626       -0.5469878706
 H          2.6614738648       -2.2777101850        1.6221696274
 H          4.8491913782       -1.6762649495        2.5828784868
 H          6.1209200664        0.2356967027        1.7323803630
 H          5.2420617044        1.6127448120       -0.1258894206
 H          3.7613021874        2.6471413433       -2.2053389746
 H          2.0672210594        3.0613417620       -3.9587268660
 H          0.0970356516        1.6233479874       -4.1585182213
 H         -0.2841508786       -0.2349029059       -2.5740812718
 H         -3.4136601996        1.5995362585        3.3572111924
 H         -2.3332591240        0.2379212899        3.0404720212
 H         -1.9460629334        1.8318765470        2.3997487189
 H         -5.3630789067        1.4658331714        2.2287751343
 H         -7.5410069163        1.0385927830       -0.7524050627
 H         -7.6569128141        0.1494587784        0.7665143092
 H         -7.3873824584        1.8900500670        0.7927740337
 H         -5.6223436251       -0.0694027796       -1.7289408173
 H         -2.1894031721       -1.1771627118       -1.9640762295
 H         -3.8185105557       -1.2641484661       -2.6369242070
 H         -2.8717135830        0.2063250967       -2.8300291348
 H          0.0223761138        0.1482836628        3.5944972071
 H         -0.0077182498       -1.0376818036        2.2932821889
 H          1.5368501534       -0.5128238456        2.9972589534
 H          2.4189654881        1.6647188756        2.6061510301
