  34
  -60.0813841186000        1.00000000000000      !
 C         -2.7146763866       -3.7360225174       -0.1163526887
 C         -1.3440289331       -3.6439633573       -0.2488583231
 C         -0.7188452716       -2.4065810980       -0.2319796536
 C         -1.4534310907       -1.2380257295       -0.0746869578
 C         -2.8478689859       -1.3410624095        0.0241765773
 C         -3.4661204167       -2.5779477651        0.0122722656
 O         -3.6661186204       -0.2430395579        0.1148024839
 C         -3.0683240424        0.9908153627        0.1484380938
 C         -3.8993507859        2.0881291055        0.2785110401
 C         -3.3653137592        3.3661027437        0.3506347891
 C         -1.9958359565        3.5340825177        0.3157256867
 C         -1.1581297283        2.4368043570        0.1860181871
 C         -1.6787262107        1.1534409223        0.0720465137
 N         -0.8607204731        0.0289276430       -0.0647406263
 C          0.5295414961        0.1849865763       -0.2222601686
 C          1.0009766505        0.9073970296       -1.3501941099
 C          2.3320500803        1.0875927855       -1.5867184452
 C          3.2498647020        0.5362279064       -0.6748975469
 N          4.5808024967        0.5965346256       -0.7145796199
 S          5.1684943937       -0.1913592609        0.5572925885
 N          3.7800277031       -0.6527676219        1.2228581176
 C          2.7753317389       -0.2006375624        0.4680236483
 C          1.4009275168       -0.3643344434        0.6880710944
 H         -3.2051662767       -4.6963423484       -0.1227204534
 H         -0.7455340069       -4.5336276809       -0.3695078163
 H          0.3512286569       -2.3520845909       -0.3522724568
 H         -4.5404243052       -2.6108576674        0.0976077278
 H         -4.9632364036        1.9197042601        0.3259632418
 H         -4.0212861567        4.2165224745        0.4476886478
 H         -1.5639770530        4.5197944623        0.3940350094
 H         -0.0890864455        2.5805180187        0.1796805883
 H          0.2687959520        1.3033318429       -2.0382264985
 H          2.6918294631        1.6263227960       -2.4482364624
 H          1.0511557685       -0.9073008845        1.5512093683
