  55
       -101.76867771
 C          2.6716722425        6.8707906547       -0.0104538502
 C          1.3749530317        6.1252058218       -0.0063415644
 C          1.3125958368        4.7431229248        0.0024800346
 C          0.0868963624        4.0753344873        0.0077204989
 C          0.0554646588        2.6182706219        0.0132272909
 N          1.2264215956        1.9837887017        0.0119736073
 C          1.2157724286        0.6659204266        0.0142892909
 N          2.3334134310       -0.0322900450        0.0102197590
 C          2.2401650653       -1.3608380108        0.0126679025
 C          3.4874905740       -2.1146981178        0.0022820967
 C          4.7094783458       -1.4419638745       -0.0181676682
 C          5.8860750488       -2.1625427664       -0.0307966802
 C          5.8261946830       -3.5452159491       -0.0219999822
 F          6.9825373829       -4.2392980323       -0.0347901269
 C          4.6246932115       -4.2518532060       -0.0013107001
 C          4.6269278251       -5.7475606343        0.0092392113
 C          3.4568315680       -3.5101247552        0.0103506966
 N          1.1054051644       -2.0579928477        0.0221834192
 C         -0.0308320537       -1.3898801549        0.0241967084
 N         -1.1945447369       -2.0086767815        0.0276150416
 C         -2.2982514924       -1.2632527874        0.0217661012
 C         -3.5761886290       -1.9638681687        0.0141194353
 C         -3.6099075805       -3.3586088037        0.0232546106
 C         -4.8248726014       -4.0126457248        0.0097614774
 C         -5.9894848136       -3.2649482108       -0.0134712714
 F         -7.1710013255       -3.9150673296       -0.0291854413
 C         -5.9952227412       -1.8708338862       -0.0226022449
 C         -7.2884156402       -1.1191039129       -0.0465638240
 C         -4.7665801249       -1.2350447275       -0.0076980962
 N         -2.3341631716        0.0680839557        0.0188808758
 C         -1.1874854457        0.7177906098        0.0189189019
 N         -1.1417540275        2.0349369182        0.0165654534
 N         -0.0009123209       -0.0021479331        0.0193369605
 C         -1.1048619989        4.8005398867        0.0049013798
 C         -1.0652220505        6.1798230623       -0.0040492642
 C          0.1639770084        6.8158793304       -0.0095903530
 F          0.1904790513        8.1643109851       -0.0194189986
 H          2.7572632624        7.4803018787        0.8885646249
 H          2.7171315415        7.5435321097       -0.8658362082
 H          3.5101466102        6.1821751040       -0.0529272463
 H          2.2163297159        4.1541841996        0.0046659555
 H          4.7115485111       -0.3643515279       -0.0245274104
 H          6.8476365404       -1.6741473713       -0.0475659990
 H          5.1287053040       -6.1160078282        0.9033576261
 H          3.6122048869       -6.1331595860       -0.0122645266
 H          5.1734145943       -6.1298703653       -0.8519245071
 H          2.4964903872       -4.0010721807        0.0253821280
 H         -2.6799311979       -3.9027477763        0.0401414498
 H         -4.8869887884       -5.0898409461        0.0148518206
 H         -7.1097984296       -0.0494284679       -0.1015920341
 H         -7.8663407981       -1.3372216820        0.8510297267
 H         -7.8874247383       -1.4266450328       -0.9027938851
 H         -4.7071964197       -0.1580900200       -0.0142343632
 H         -2.0407130333        4.2662405112        0.0091147871
 H         -1.9674153913        6.7710218653       -0.0071586650
