34
 energy: -52.322981732292 gnorm: 0.000042534820 xtb: 6.7.1 (edcfbbe)
C            3.80180346983593       -2.25125624340570        0.25397780612305
C            2.52046484036769       -2.59234187629996        0.65818138450470
C            1.49369866019202       -1.65423881623530        0.58710413142107
C            1.72269710297028       -0.37145104986256        0.11008100574972
C            3.06419615025514        0.02276908896499       -0.18516233427178
C            4.07567894720135       -0.96050524951942       -0.14711295952973
C            3.38235492625236        1.36929911675269       -0.43085701174295
C            2.41208369858142        2.38517310138276       -0.33598010809461
C            1.11632488822811        2.01541193955412       -0.10591617782914
N           -0.00050375745343        2.81008482426976       -0.00066499347311
C           -1.11704542514039        2.01503717720168        0.10475555024368
C           -2.41297353811532        2.38442438982634        0.33448736358678
C           -3.38290393683788        1.36824172172588        0.42954199967866
C           -3.06422267847349        0.02173237906966        0.18438777874623
C           -4.07536504396151       -0.96190019811128        0.14647173735069
C           -3.80095374545042       -2.25272088935678       -0.25402858201515
C           -2.51938878916272       -2.59354999853128       -0.65772784071020
C           -1.49296514721789       -1.65506261207598       -0.58679927858861
C           -1.72252293343475       -0.37213617721427       -0.11041243939878
C           -0.69552283042670        0.63476677096727        0.00873396054763
C            0.69531458857772        0.63502312401215       -0.00935097271778
H            4.59123706029707       -2.98848860702183        0.27778095057770
H            2.31045516111728       -3.58644713129378        1.02320868581782
H            0.50981168668180       -1.92329666568593        0.93806652239928
H            5.08219120717107       -0.67710090164137       -0.41962666541962
H            4.40824086846675        1.63534335768265       -0.63445532330189
H            2.69114301982679        3.42171502014097       -0.44741009529533
H           -0.00070615407897        3.81459419238031       -0.00097903438588
H           -2.69241701578757        3.42090729705984        0.44549101795015
H           -4.40892223565609        1.63399358605240        0.63284949893815
H           -5.08203981873707       -0.67873069387581        0.41864401312442
H           -4.59012794588891       -2.99023551002838       -0.27770532693192
H           -2.30894511360283       -3.58773985541453       -1.02227189791380
H           -0.50890622520352       -1.92393337587781       -0.93741576004850
