34
 energy: -52.406453453423 gnorm: 0.000026539667 xtb: 6.7.1 (edcfbbe)
C            3.84440996502901       -2.22286711615393        0.23470572986565
C            2.54685470563941       -2.59215320084184        0.60401589663170
C            1.51971298011092       -1.68765517762530        0.53245677696773
C            1.73757251766923       -0.37266715288881        0.08308747222152
C            3.07741168035552        0.03488189289483       -0.16937717627333
C            4.10401628315389       -0.92730765230273       -0.12192048292797
C            3.38793021296119        1.40015976918218       -0.39782422177276
C            2.43182974010322        2.36794689773928       -0.31503278493360
C            1.10522347406723        1.96483473140798       -0.11522295774794
N           -0.00052968003239        2.75837760830751       -0.00004317330196
C           -1.10601010661027        1.96448367359506        0.11532936716800
C           -2.43292066431151        2.36726747255545        0.31375430000489
C           -3.38886443650146        1.39924676536479        0.39558655817345
C           -3.07769027728655        0.03397171306988        0.16802292812313
C           -4.10404749497775       -0.92841362591873        0.11924361410863
C           -3.84360592605502       -2.22412706958759       -0.23621359526887
C           -2.54528359091869       -2.59346295994060       -0.60275724696134
C           -1.51846540204725       -1.68869149263601       -0.53012352991828
C           -1.73737449638478       -0.37336416766471       -0.08225687156742
C           -0.71705373434359        0.61365285229505        0.03160928861389
C            0.71680660092346        0.61391619717071       -0.03053652712917
H            4.64084492612252       -2.95179843617461        0.26983948459812
H            2.35837186918218       -3.59507282498670        0.95898408379890
H            0.53704338492658       -1.96803146968388        0.87604043145409
H            5.11380267794340       -0.61514795737153       -0.34955476518812
H            4.41769229589036        1.66489263985421       -0.58889452366161
H            2.67372009826776        3.41629558777973       -0.41250315411580
H           -0.00068346850367        3.76418061077077       -0.00042834994901
H           -2.67521294656892        3.41557982903237        0.41058834052692
H           -4.41896204436857        1.66379539986578        0.58512096712798
H           -5.11429642654567       -0.61631698389512        0.34491054858186
H           -4.63986254225300       -2.95319913725136       -0.27241987544234
H           -2.35593318579233       -3.59662476062950       -0.95657878300676
H           -0.53515980301131       -1.96920119540455       -0.87172889559526
