34
 energy: -52.406453446943 gnorm: 0.000017992177 xtb: 6.7.1 (edcfbbe)
C            3.84214650889183       -2.09285175567621        0.26815461546151
C            2.54124609321172       -2.46206062537400        0.62558527739231
C            1.51475493999346       -1.55765700411721        0.54418156991219
C            1.73674705517442       -0.24276680569887        0.09655650629917
C            3.07876528460410        0.16459763101831       -0.14431826955877
C            4.10492227021052       -0.79752691392046       -0.08701549235888
C            3.39131076155240        1.52974512427802       -0.37085450798813
C            2.43469003692041        2.49768991432309       -0.29630839341528
C            1.10645934344459        2.09484729765365       -0.10699817695830
N            0.00001246987421        2.88858098286388       -0.00000382916280
C           -1.10644124334454        2.09485712240067        0.10699264447651
C           -2.43466843511663        2.49771167649755        0.29630201145218
C           -3.39129748589174        1.52977532002918        0.37085081191300
C           -3.07876381995929        0.16462455563012        0.14431801818174
C           -4.10492909610725       -0.79749131262476        0.08701801865809
C           -3.84216456778285       -2.09281933875982       -0.26814878384029
C           -2.54126742778776       -2.46204032094641       -0.62557884952912
C           -1.51476847827441       -1.55764530970916       -0.54417780219944
C           -1.73674915472812       -0.24275205911959       -0.09655603096823
C           -0.71713268831379        0.74399489160578        0.02558922307060
C            0.71713912014360        0.74398863421660       -0.02559139934507
H            4.63829602164209       -2.82166307928631        0.31129918053625
H            2.34956455266267       -3.46481949971600        0.97929463902736
H            0.52894453351874       -1.83799095405263        0.87867574039357
H            5.11673647324793       -0.48547567309095       -0.30561989635636
H            4.42265228587280        1.79429902819057       -0.55347942827736
H            2.67751461635902        3.54597382140316       -0.39214468043217
H            0.00001683648280        3.89438418010123       -0.00000487969900
H           -2.67748397150037        3.54599792858855        0.39213560027731
H           -4.42263669688987        1.79433858933092        0.55347522658737
H           -5.11674053449310       -0.48543082925823        0.30562202691581
H           -4.63832034038848       -2.82162395386367       -0.31129115933443
H           -2.34959464769880       -3.46480170998335       -0.97928584696763
H           -0.52896061551811       -1.83798855293026       -0.87867168416540
