56
 energy: -94.912452994238 gnorm: 0.000016317589 xtb: 6.7.1 (edcfbbe)
O            3.12726412685143        3.62557767851335        1.23125751751451
S            2.96779923839133        2.89456824780549        0.00244884105056
O            3.12813590263161        3.63205972871970       -1.22233234522610
C            4.08217145853668        1.50713783127921       -0.00050255221564
C            5.43151364408509        1.80934928813664       -0.00214106012995
C            6.37656876483348        0.80269363040137       -0.00347246218443
C            5.94226880175473       -0.51525451487045       -0.00300315050837
C            4.59732945123678       -0.81981683543504       -0.00146461916128
C            3.62369113128592        0.19228385774482       -0.00023949227217
N            2.27956431357395       -0.14959406366519        0.00101451240997
C            1.95931838729680       -1.54688993938107        0.00184322862562
C            1.79981847517609       -2.21855509562481       -1.20258179852881
C            1.48241232716763       -3.56574253771129       -1.19730227476900
C            1.32444864531134       -4.23795883469668        0.00358738611136
C            1.48355634588785       -3.56444929841142        1.20359344397096
C            1.80097005179216       -2.21724823340178        1.20712665761399
C            1.21740106501447        0.73332256074632        0.00051223393359
C           -0.09633198323497        0.23585127010886        0.00015074371969
C           -1.18347835783114        1.08857367063170       -0.00062190375951
N           -2.48754725612858        0.51498711867773       -0.00071882498172
C           -3.11412413625535        0.34620963126095       -1.23365481316327
C           -2.50185955165453        0.81812576626369       -2.39576721987747
C           -3.09546080525063        0.66798425253220       -3.63666480080026
C           -4.32619566881551        0.05049736972797       -3.75300877572394
C           -4.94723268715373       -0.42762940352059       -2.61268568977098
C           -4.34791769057372       -0.29467680795876       -1.37123834405854
S           -5.20067231097776       -1.02339736820432       -0.00073711294772
C           -4.34803912649278       -0.29451153982599        1.36975220087084
C           -4.94747203419572       -0.42728727563510        2.61116232664481
C           -4.32658814803398        0.05109593686146        3.75146030702765
C           -3.09591812097168        0.66871447116201        3.63512269768369
C           -2.50219866547819        0.81867217804046        2.39426025018850
C           -3.11426569423008        0.34640878093572        1.23218375719690
C           -1.01244822791013        2.47167776677325       -0.00122616669434
C            0.27388804654508        2.97014606491883       -0.00072823738482
C            1.36418815064428        2.11936149678172        0.00020588895951
H            5.70766041808188        2.85203948857444       -0.00230145146268
H            7.42915921615204        1.03533102063056       -0.00474618133171
H            6.66158162492441       -1.32036087095453       -0.00390672644597
H            4.29257409550634       -1.85435699597323       -0.00119196143108
H            1.92429137877899       -1.68199512559014       -2.13115774460130
H            1.35700295013097       -4.08982277854542       -2.13242921575391
H            1.07573283416834       -5.28816991157193        0.00426760855580
H            1.35903061123236       -4.08752196246229        2.13940122049858
H            1.92633012432034       -1.67968453750383        2.13499809601285
H           -0.28071170905298       -0.82680444895863        0.00055163661941
H           -1.54320688493693        1.30793836228043       -2.32786423023964
H           -2.58691762265528        1.04288901979373       -4.51169894670797
H           -4.79880342159141       -0.06518254904170       -4.71547908033278
H           -5.90342505239070       -0.92492125407898       -2.67150341922267
H           -5.90363705678228       -0.92463334598852        2.66997107552631
H           -4.79927447851674       -0.06446568957701        4.71390646335786
H           -2.58751353053749        1.04386340822527        4.51013160494627
H           -1.54361993261478        1.30862970907036        2.32636657469214
H           -1.87082595996444        3.12429942476140       -0.00191093444551
H            0.47001453292716        4.03064318723002       -0.00099373759922
