56
 energy: -94.824231266055 gnorm: 0.000077910318 xtb: 6.7.1 (edcfbbe)
O            3.55080563307093       -2.86548791093365       -1.76538677753075
S            3.23802954510129       -2.13296185618611       -0.56856162829326
O            3.38797420068070       -2.82658650094497        0.68684389881101
C            4.19975260956512       -0.64075283515298       -0.48137014091512
C            5.52971137375662       -0.69575474300748       -0.85089540244998
C            6.34505338617155        0.40865005204849       -0.69023319419165
C            5.80408727955407        1.56165324560086       -0.14011849565714
C            4.47284051157588        1.62314364912766        0.21813478963375
C            3.62819351698423        0.51579687865491        0.04497449489641
N            2.28288215726868        0.61163075246122        0.37095887717246
C            1.86259398016861        1.78780584635454        1.07033295557784
C            1.91780010630695        1.80466257334652        2.45609086197016
C            1.51256296527939        2.93606924974188        3.14397330560915
C            1.05223801084202        4.04338202826381        2.45122671494594
C            0.99696220064995        4.02375649921949        1.06687848819484
C            1.40247570049363        2.89800385697825        0.37216722698366
C            1.29742432800516       -0.26163501016941       -0.05342507758723
C           -0.05088204690848        0.08744300372545        0.07510580451130
C           -1.04883171194593       -0.74989075429680       -0.41548964204562
N           -2.41464582751112       -0.36301192307000       -0.26629478592874
C           -3.10882341713505       -0.94007797967171        0.76367820729836
C           -2.43831973851856       -1.68842949855003        1.74958489431883
C           -3.11185769082183       -2.30016346088689        2.77096131046044
C           -4.52580138394975       -2.22398322150215        2.84779818217869
C           -5.21316617008058       -1.52523526224852        1.89592574606775
C           -4.54338416467205       -0.84998754605210        0.86756060001246
S           -5.50400342622587       -0.12710703743497       -0.37474085797354
C           -4.33970624753527        0.78856257360701       -1.26931925538837
C           -4.82612832837694        1.66062558436387       -2.25468610694141
C           -3.98103333983908        2.28570060141910       -3.12568583480616
C           -2.59299817184948        2.00201581836120       -3.07361050274227
C           -2.09854219146046        1.12310693672007       -2.14625909704458
C           -2.92797269172713        0.50599272511380       -1.19514557529324
C           -0.74023749432808       -1.95180781286255       -1.04814813209846
C            0.58398956792275       -2.32182777564184       -1.13906179568808
C            1.58518680731059       -1.49833529822266       -0.63985692149515
H            5.89673792784609       -1.62430772640569       -1.25885221120765
H            7.38409012425460        0.37114201548702       -0.97557044178913
H            6.42665386888895        2.43141997318517        0.00770485399723
H            4.07973697435036        2.53727780687089        0.63455755071387
H            2.27910544084645        0.93395262399552        2.98199175249446
H            1.55578828100290        2.95120821575621        4.22232515902339
H            0.73604497886233        4.92365343531749        2.98997102119096
H            0.63812331093197        4.88634031907462        0.52605488700347
H            1.36557458527347        2.87130643401187       -0.70692343272850
H           -0.34270233877479        1.00874410454605        0.55356553183941
H           -1.36313097650710       -1.76476271313520        1.70120586201792
H           -2.56709404602755       -2.85076196537682        3.52062680285391
H           -5.04707666228368       -2.71781375344973        3.65155137463726
H           -6.29089566515868       -1.46164292396942        1.92151461037059
H           -5.89182544051057        1.83074263709047       -2.29308473510780
H           -4.35987258837949        2.97851804284717       -3.85945251160804
H           -1.92632714537289        2.47408459620803       -3.77710435786478
H           -1.04181131114454        0.90659283510258       -2.13418398227171
H           -1.52846603944388       -2.57968712981809       -1.43174471585758
H            0.88406428099312       -3.25399059427938       -1.58917022417491
