56
 energy: -94.824266833960 gnorm: 0.000075773356 xtb: 6.7.1 (edcfbbe)
O            3.49375287825701        3.04592943437484        1.60241055852475
S            3.20978524709987        2.21085648160945        0.46719419160908
O            3.37790492104791        2.79523119208997       -0.84050125436701
C            4.18458497221323        0.72565286599491        0.52236460127887
C            5.50286287062195        0.81686375450556        0.92489129741541
C            6.32976116062681       -0.28886181875935        0.86071171119222
C            5.81372212780436       -1.47960941493826        0.37027114228460
C            4.49360942377397       -1.57666653533401       -0.02026274283541
C            3.63627297812950       -0.46873077297271        0.05941551619036
N            2.30010098019203       -0.59717993264132       -0.29148543149022
C            1.90738074154897       -1.80794481449136       -0.94633952105443
C            1.96412652893501       -1.87210794746577       -2.33060480189307
C            1.58510843839062       -3.03565927398949       -2.97858884909785
C            1.14995294815337       -4.12836203338899       -2.24740320167358
C            1.09302056855337       -4.06146982138642       -0.86460572334939
C            1.47151276922987       -2.90290094089911       -0.20960433306322
C            1.29752648307536        0.28797193574785        0.06223896027786
C           -0.04376908759366       -0.09168621582873       -0.05035470566488
C           -1.05862116305872        0.76669397692164        0.36377223804039
N           -2.41725383526872        0.34789264786941        0.23237533671676
C           -3.08408932663005        0.75665192354337       -0.89212430211140
C           -2.39312757725128        1.36880475249851       -1.95392625253088
C           -3.04052133056538        1.80263276426042       -3.07871203935994
C           -4.44840237964715        1.67758077332191       -3.19150118904822
C           -5.15707788139886        1.11709844535050       -2.16690733581214
C           -4.51279337401583        0.62295427712308       -1.02486828366943
S           -5.50608029657390        0.09389724907544        0.28807062467263
C           -4.36388958398808       -0.65046237569541        1.35294971652632
C           -4.87152590319479       -1.35667630296336        2.45303466277647
C           -4.04471862206851       -1.83813455692716        3.42714771958996
C           -2.65373617163750       -1.57250171629586        3.35436985249782
C           -2.13946484630203       -0.84786490289660        2.31228735392551
C           -2.95099132234853       -0.37770344273337        1.26567527807343
C           -0.77439719014485        2.01734297401342        0.90626370232517
C            0.54374103353462        2.41137725744045        0.98705053616401
C            1.56172824671382        1.56718093350852        0.56168719876419
H            5.85206554952064        1.77374583761556        1.27957805590567
H            7.35980429341561       -0.22375658983127        1.17254529237514
H            6.44717162756847       -2.35086708103952        0.29539252614401
H            4.11953807640480       -2.51866355928452       -0.38946875109801
H            2.30562353886060       -1.01204981660335       -2.88647609595837
H            1.62923210598476       -3.08744177356524       -4.05576580058837
H            0.85457899877741       -5.03406305405373       -2.75493889826529
H            0.75379123629348       -4.91278587795426       -0.29399981046764
H            1.43267093996169       -2.83897116129864        0.86790342555945
H           -0.31681635972751       -1.05216414746736       -0.45754574125856
H           -1.32279094525909        1.48279240242106       -1.87984828593436
H           -2.47974530635227        2.25046998293725       -3.88300139393020
H           -4.94900662193237        2.02946482458127       -4.07881003673761
H           -6.23196963196849        1.02625170954330       -2.21744858545455
H           -5.93818383205224       -1.51917869570546        2.49728908538867
H           -4.43981442565005       -2.40590944788173        4.25381780235144
H           -2.00104365160343       -1.93596849390046        4.13159310074040
H           -1.08101416439448       -0.64115123044002        2.28191166064500
H           -1.57586438016517        2.66107731369102        1.23178956890616
H            0.82571271327586        3.37809667463416        1.37108949934966
