  69
  -117.087962140000       0.267609350591076      !
 C         -9.0341600111       -2.9695454058       -1.2477963206
 C         -7.7131898433       -3.2598859203       -0.9516832910
 C         -6.8365902834       -2.2535071279       -0.5898916080
 C         -7.2689913498       -0.9308065810       -0.5043620446
 C         -8.6025151958       -0.6434526085       -0.8428651341
 C         -9.4742689480       -1.6572120583       -1.2030250625
 O         -9.0922530726        0.6326175128       -0.8548087778
 C         -8.2432034666        1.6427076642       -0.4991158251
 C         -8.7552415290        2.9292941085       -0.5018709691
 C         -7.9592799325        3.9953857043       -0.1170654083
 C         -6.6565279449        3.7655382144        0.2917773034
 C         -6.1369611630        2.4842182593        0.2948641632
 C         -6.9101621340        1.4021934498       -0.1241426994
 N         -6.4175318439        0.1041788350       -0.1410286020
 C         -5.0734616737       -0.1555430332        0.2010671938
 C         -4.7672595690       -0.9724388565        1.3021450991
 C         -3.4660673978       -1.2156130630        1.6418826863
 C         -2.4070172520       -0.6599929903        0.8819891166
 C         -1.0730898864       -0.9228268105        1.2371587350
 N         -0.6504160406       -1.6677508704        2.2576946651
 N          0.6535938272       -1.6626116544        2.2587647135
 C          1.0720643667       -0.9145972098        1.2387166603
 C          2.4047536451       -0.6440369433        0.8846948423
 C          2.7239778633        0.1731623272       -0.2273724056
 C          4.0286924950        0.4228616253       -0.5554806446
 C          5.0695894449       -0.1382631779        0.1985724390
 N          6.4141443232        0.1112122941       -0.1495343681
 C          6.9213327286        1.4034716776       -0.1326025040
 C          6.1569448231        2.4960497945        0.2751206986
 C          6.6923438218        3.7709556803        0.2741580927
 C          8.0022429208        3.9836567959       -0.1210356720
 C          8.7888841646        2.9069629418       -0.4951656543
 C          8.2609400776        1.6267941883       -0.4951538538
 O          9.1015373726        0.6059071308       -0.8401743798
 C          8.5948301720       -0.6635629289       -0.8364786044
 C          9.4558614325       -1.6882419390       -1.1920130352
 C          8.9981349671       -2.9943625712       -1.2443907329
 C          7.6706260415       -3.2673206246       -0.9608088964
 C          6.8049490839       -2.2501727058       -0.6032037526
 C          7.2547502860       -0.9337352286       -0.5098421713
 C          4.7656606845       -0.9530242574        1.3020178840
 C          3.4654133717       -1.1962583064        1.6447778920
 O         -0.0019252432       -0.4035701275        0.5420640455
 C         -2.7286612546        0.1561122746       -0.2301847773
 C         -4.0339419776        0.4052792929       -0.5554252911
 H         -9.7182421720       -3.7551197895       -1.5259599411
 H         -7.3552218024       -4.2760847584       -1.0060756824
 H         -5.8054664763       -2.4852181833       -0.3789535346
 H        -10.4901155128       -1.3933984554       -1.4503760769
 H         -9.7809432501        3.0702213144       -0.8024452879
 H         -8.3625400452        4.9953166291       -0.1235629365
 H         -6.0368938637        4.5863142075        0.6179878664
 H         -5.1282051284        2.3105719495        0.6326006859
 H         -5.5747575876       -1.3841374846        1.8902534611
 H         -3.2113962635       -1.8236742776        2.4941203134
 H          1.9204396213        0.5863929898       -0.8166566025
 H          4.2713208692        1.0343094669       -1.4130294976
 H          5.1425113937        2.3357744717        0.6024169415
 H          6.0791344689        4.6004670234        0.5898311230
 H          8.4179529471        4.9786187365       -0.1260650207
 H          9.8195069067        3.0344366372       -0.7850275697
 H         10.4773288927       -1.4378968641       -1.4295354502
 H          9.6737971080       -3.7886278669       -1.5188427987
 H          7.2991170212       -4.2784035393       -1.0211767084
 H          5.7690925149       -2.4684548822       -0.4008242132
 H          5.5747006715       -1.3644750668        1.8881361005
 H          3.2126125476       -1.8038713173        2.4978688721
 H         -1.9264308830        0.5701995369       -0.8206226539
 H         -4.2787406158        1.0183166330       -1.4112236667
  69
  -117.087815328600       0.229103348195110      !
 C         -8.1057056991       -3.4594829594       -1.8363414256
 C         -6.7937358179       -3.4747511015       -1.3939206560
 C         -6.2235570914       -2.3395370257       -0.8478568313
 C         -6.9555514998       -1.1579675637       -0.7421920975
 C         -8.2956520304       -1.1626188707       -1.1661195487
 C         -8.8584293004       -2.3033979514       -1.7131376497
 O         -9.1011524507       -0.0649640602       -1.0438685256
 C         -8.5596802032        1.0634234465       -0.4936785069
 C         -9.3828598554        2.1711515164       -0.3810970799
 C         -8.8872333127        3.3555044554        0.1388849239
 C         -7.5608800018        3.4320271031        0.5295657065
 C         -6.7324247491        2.3299342202        0.4222237008
 C         -7.2200934288        1.1211452145       -0.0718877336
 N         -6.4152074351       -0.0020050154       -0.1973157055
 C         -5.0697799948        0.0272617957        0.2325246063
 C         -4.7680450207        0.2103170589        1.5914529244
 C         -3.4682583391        0.2207007198        2.0145529164
 C         -2.4083241750        0.0737606386        1.0864725903
 C         -1.0754012877        0.0958040711        1.5332550645
 N         -0.6584124223        0.1828687123        2.7951744089
 N          0.6455425812        0.1562231202        2.8006135978
 C          1.0693047362        0.0576278596        1.5414036091
 C          2.4032639651        0.0148535851        1.1027724029
 C          2.7278776563       -0.0225086501       -0.2758072247
 C          4.0335862591       -0.0411148649       -0.6830692804
 C          5.0723471978       -0.0217878618        0.2601029404
 N          6.4169621205       -0.0241972805       -0.1649792202
 C          7.2660823449        1.0229705654        0.1705087740
 C          6.8298468934        2.1329041406        0.8934439417
 C          7.7059005294        3.1520274780        1.2186250572
 C          9.0306717045        3.0956989770        0.8196914505
 C          9.4739090536        2.0215245451        0.0664357388
 C          8.6024572654        0.9973113670       -0.2644637856
 O          9.0957148256       -0.0115381651       -1.0434119176
 C          8.2474247191       -1.0293560642       -1.3773114152
 C          8.7618336152       -2.0481560051       -2.1615420477
 C          7.9684105722       -3.1302239258       -2.5043671835
 C          6.6665702201       -3.2001249675       -2.0377243382
 C          6.1446656979       -2.1856556535       -1.2565815910
 C          6.9137641580       -1.0677284738       -0.9347846494
 C          4.7625385803        0.0061703383        1.6307124966
 C          3.4609358120        0.0212862509        2.0460227338
 O         -0.0014402576        0.0065906754        0.6743037609
 C         -2.7259053578       -0.0957700568       -0.2830186416
 C         -4.0307050874       -0.1301584232       -0.6948094899
 H         -8.5491007469       -4.3445129572       -2.2639311618
 H         -6.2067710791       -4.3769977362       -1.4666510886
 H         -5.2075734077       -2.3621135506       -0.4884446611
 H         -9.8886312367       -2.2643775271       -2.0287050375
 H        -10.4051301128        2.0845309906       -0.7125930802
 H         -9.5332298172        4.2146835226        0.2244223968
 H         -7.1613505953        4.3564980628        0.9163572929
 H         -5.6968528075        2.3990307837        0.7135856494
 H         -5.5781278881        0.3178531331        2.2983194003
 H         -3.2161338360        0.3356384062        3.0557899251
 H          1.9270862953       -0.0172567880       -0.9986003066
 H          4.2791166269       -0.0442249954       -1.7356002820
 H          5.7964062332        2.1945826129        1.1927356018
 H          7.3448091171        3.9960725517        1.7852409405
 H          9.7148277172        3.8875890358        1.0792934780
 H         10.4919959430        1.9581531305       -0.2826006111
 H          9.7877224925       -1.9752738826       -2.4849086608
 H          8.3730786467       -3.9186273508       -3.1186279916
 H          6.0492653507       -4.0519862937       -2.2768227784
 H          5.1367459895       -2.2567293312       -0.8815667023
 H          5.5681155181       -0.0061949728        2.3506410001
 H          3.2047697798        0.0304346566        3.0925443651
 H         -1.9218420218       -0.1955977986       -0.9952364012
 H         -4.2739776311       -0.2569606815       -1.7402592632
  69
  -117.087685461200       0.199686411022279      !
 C         -9.2721961007       -3.0334696983       -0.0101562923
 C         -7.9584817432       -3.3015163741        0.3359844226
 C         -6.9966198203       -2.3107182806        0.2639983383
 C         -7.3335569629       -1.0214205598       -0.1463381336
 C         -8.6617768931       -0.7717495434       -0.5327388001
 C         -9.6194613463       -1.7689155711       -0.4555995755
 O         -9.0636467547        0.4418883423       -1.0160837519
 C         -8.1288676900        1.4355717657       -1.0955136217
 C         -8.5521907750        2.6633981719       -1.5761551200
 C         -7.6661653122        3.7254341816       -1.6478130720
 C         -6.3617125807        3.5596021096       -1.2141767961
 C         -5.9308478997        2.3364388499       -0.7346374610
 C         -6.7965146079        1.2440320786       -0.6907668620
 N         -6.3950752365       -0.0010782637       -0.2239054080
 C         -5.0598558085       -0.2168194543        0.1766714147
 C         -4.7672634469       -0.5829078209        1.5013240328
 C         -3.4718506855       -0.7551149263        1.9010480482
 C         -2.4053399259       -0.5746101118        0.9856566476
 C         -1.0753519784       -0.7132955298        1.4167542449
 N         -0.6603841642       -1.0282385383        2.6430678612
 N          0.6437071483       -1.0196111198        2.6509907505
 C          1.0695709645       -0.6971426615        1.4305312296
 C          2.4030764480       -0.5349196385        1.0177509505
 C          2.7245132924       -0.1647259209       -0.3111159998
 C          4.0269969430        0.0254028130       -0.6849480363
 C          5.0616323312       -0.1308186172        0.2485497740
 N          6.4006942038        0.1099257372       -0.1269776838
 C          7.1263958357        1.1279308557        0.4777333462
 C          6.5631834222        1.9768944643        1.4296122485
 C          7.3155061771        2.9798228591        2.0128806020
 C          8.6395780559        3.1658657180        1.6530470962
 C          9.2074182077        2.3547099607        0.6846953336
 C          8.4603253063        1.3492134190        0.0943486408
 O          9.0701361057        0.6088214094       -0.8795709845
 C          8.3390660366       -0.3780032841       -1.4794490858
 C          8.9680550444       -1.1206556768       -2.4643748868
 C          8.2956863328       -2.1578693927       -3.0892335559
 C          6.9990728090       -2.4617417704       -2.7098005183
 C          6.3630387522       -1.7236745483       -1.7285424077
 C          7.0107156232       -0.6541291480       -1.1118503562
 C          4.7565820661       -0.5101905354        1.5662655586
 C          3.4596908504       -0.7183355299        1.9436045015
 O          0.0009303758       -0.4951026136        0.5837829875
 C         -2.7145335951       -0.2316950608       -0.3535628314
 C         -4.0134499008       -0.0514256192       -0.7429118834
 H        -10.0230120555       -3.8049504015        0.0513911075
 H         -7.6736674855       -4.2896880596        0.6619378259
 H         -5.9727183519       -2.5318836124        0.5178225058
 H        -10.6276407467       -1.5330053518       -0.7561036781
 H         -9.5809525147        2.7647583896       -1.8825107114
 H         -8.0002899958        4.6781587946       -2.0263548459
 H         -5.6704769321        4.3873845520       -1.2427923611
 H         -4.9194012632        2.2217245417       -0.3806829783
 H         -5.5787399638       -0.6958502570        2.2056521821
 H         -3.2265098424       -1.0121254192        2.9182183399
 H          1.9231770529       -0.0211494946       -1.0189046696
 H          4.2698600652        0.3270254541       -1.6940009265
 H          5.5283156933        1.8496974975        1.7025734885
 H          6.8574864343        3.6209607592        2.7498184145
 H          9.2269609566        3.9453685880        2.1113905513
 H         10.2284587766        2.4873103502        0.3650358444
 H          9.9855851437       -0.8723527553       -2.7199785160
 H          8.7902803011       -2.7318113450       -3.8565729697
 H          6.4760492173       -3.2831873443       -3.1740826076
 H          5.3609415538       -1.9779302033       -1.4234945456
 H          5.5636864884       -0.6516816720        2.2705280328
 H          3.2069847497       -1.0226565866        2.9458071895
 H         -1.9079170120       -0.1185575264       -1.0608612630
 H         -4.2490375764        0.2026866429       -1.7666877105
  69
  -117.087524675100       0.168444306434998      !
 C         -9.0434066929       -3.2577752008       -0.0940041170
 C         -7.7238825698       -3.4219991668        0.2919899405
 C         -6.8418594345       -2.3578669109        0.2507130906
 C         -7.2671033779       -1.0974080924       -0.1671023477
 C         -8.5983249924       -0.9527335812       -0.5943358295
 C         -9.4756866855       -2.0231348430       -0.5486705336
 O         -9.0803670058        0.2264462259       -1.0897246591
 C         -8.2268857577        1.2927096265       -1.1357158076
 C         -8.7314888570        2.4848695051       -1.6272760308
 C         -7.9319896993        3.6150847688       -1.6662725580
 C         -6.6336173583        3.5526652829       -1.1891873479
 C         -6.1213653658        2.3652929848       -0.6996875869
 C         -6.8972790881        1.2067433960       -0.6881645015
 N         -6.4112456363       -0.0044301061       -0.2135013108
 C         -5.0706263127       -0.1222411400        0.2089694549
 C         -4.7736655874       -0.4870871226        1.5328999206
 C         -3.4755612009       -0.5979328486        1.9454160491
 C         -2.4099966421       -0.3559376383        1.0433608673
 C         -1.0788805760       -0.4766813404        1.4767075398
 N         -0.6622358119       -0.8378798808        2.6896765956
 N          0.6419220282       -0.8342445394        2.6947737247
 C          1.0660403490       -0.4668450834        1.4862212875
 C          2.3998505246       -0.3231864988        1.0684649200
 C          2.7209480324        0.1083406941       -0.2419753425
 C          4.0258810507        0.2436352555       -0.6298505301
 C          5.0659712147       -0.0342275351        0.2694054278
 N          6.4100704775        0.1141714455       -0.1317578992
 C          7.2473564580        1.0093141283        0.5216124155
 C          6.7944458284        1.8365287023        1.5486638867
 C          7.6580200121        2.7105711437        2.1829773291
 C          8.9866496372        2.7886667758        1.8007338763
 C          9.4466575928        2.0032936620        0.7568754026
 C          8.5876196989        1.1271919218        0.1150106970
 O          9.0967971571        0.4105208205       -0.9316337722
 C          8.2590515956       -0.4561840209       -1.5755771016
 C          8.7893478205       -1.1802042544       -2.6301593980
 C          8.0068469130       -2.1037318123       -3.3030067124
 C          6.6992083482       -2.3162237478       -2.9004041929
 C          6.1617254034       -1.5959970811       -1.8495566451
 C          6.9208348291       -0.6339667049       -1.1843022077
 C          4.7598936260       -0.4597210880        1.5731243675
 C          3.4592932515       -0.6071269118        1.9655143616
 O         -0.0038726376       -0.2233085113        0.6521461612
 C         -2.7220409836        0.0070617676       -0.2898274663
 C         -4.0242036877        0.1249040635       -0.6920710080
 H         -9.7320205163       -4.0866877420       -0.0568659617
 H         -7.3711702015       -4.3857977788        0.6244595283
 H         -5.8120076841       -2.4993530328        0.5350600505
 H        -10.4895613240       -1.8667743070       -0.8803615743
 H         -9.7546289049        2.5051995042       -1.9664028125
 H         -8.3293988726        4.5399717763       -2.0527197186
 H         -6.0113300631        4.4339046461       -1.1916148442
 H         -5.1160844386        2.3293991255       -0.3126613241
 H         -5.5859540146       -0.6545655179        2.2253602002
 H         -3.2284427105       -0.8605049169        2.9607359190
 H          1.9180984392        0.3391146638       -0.9245556618
 H          4.2691579893        0.5891834841       -1.6246273799
 H          5.7580304293        1.7945394616        1.8410234756
 H          7.2838473814        3.3362336064        2.9782807326
 H          9.6608067778        3.4667591359        2.2990539072
 H         10.4685099728        2.0571934706        0.4172457052
 H          9.8188212424       -1.0084741923       -2.9007717750
 H          8.4240394077       -2.6619931198       -4.1257497822
 H          6.0892480591       -3.0513594483       -3.4019424072
 H          5.1490050503       -1.7811987080       -1.5299687596
 H          5.5678714671       -0.6912498544        2.2520242139
 H          3.2055480488       -0.9493534060        2.9551066365
 H         -1.9146465669        0.1779045083       -0.9845479346
 H         -4.2611262803        0.3856145034       -1.7138564277
  69
  -117.087190305000       0.118247094302494      !
 C         -9.3870609869       -2.8943850176        0.1059917824
 C         -8.0788230657       -3.2136348570        0.4285127041
 C         -7.0762696184       -2.2681629637        0.3151148970
 C         -7.3655160119       -0.9731066547       -0.1133715440
 C         -8.6895644984       -0.6732221945       -0.4776763371
 C         -9.6881652007       -1.6250849467       -0.3589307649
 O         -9.0482622724        0.5464346235       -0.9793094762
 C         -8.0740720702        1.4977683108       -1.0942384826
 C         -8.4546206155        2.7336054547       -1.5899718825
 C         -7.5269893015        3.7563435543       -1.6960047207
 C         -6.2234096001        3.5439941613       -1.2805385367
 C         -5.8351107617        2.3123721272       -0.7864256758
 C         -6.7438136577        1.2574018305       -0.7092831009
 N         -6.3857818591        0.0039781184       -0.2287699144
 C         -5.0550353706       -0.2575929677        0.1582916375
 C         -4.7596801359       -0.6172395585        1.4842862726
 C         -3.4660074854       -0.8231818858        1.8730288915
 C         -2.4034493305       -0.6812601628        0.9461336344
 C         -1.0735290376       -0.8350725835        1.3720662103
 N         -0.6585688872       -1.1385285334        2.6013080397
 N          0.6454945551       -1.1329331880        2.6084804598
 C          1.0714753094       -0.8236300443        1.3845442160
 C          2.4055311779       -0.6509222618        0.9773073528
 C          2.7331650693       -0.2936923443       -0.3534164446
 C          4.0346101900       -0.0721230386       -0.7140553214
 C          5.0605231229       -0.1819618093        0.2351749167
 N          6.3950540058        0.1087342470       -0.1222385985
 C          7.0624158610        1.1718744120        0.4719097922
 C          6.4455677340        2.0106005566        1.3991522666
 C          7.1397019437        3.0611839155        1.9705239762
 C          8.4574291849        3.3055483189        1.6227769082
 C          9.0778886646        2.5032360261        0.6796680449
 C          8.3894684527        1.4497048340        0.1019122269
 O          9.0488892686        0.7187863579       -0.8465918243
 C          8.3754349658       -0.3153374452       -1.4342437696
 C          9.0546873985       -1.0498126758       -2.3914645957
 C          8.4415141628       -2.1310560317       -3.0024450860
 C          7.1537224628       -2.4859078364       -2.6377584072
 C          6.4675829274       -1.7564641775       -1.6842405957
 C          7.0555875700       -0.6456609297       -1.0810616187
 C          4.7507593878       -0.5574192230        1.5526919910
 C          3.4558707902       -0.7992402219        1.9164918704
 O          0.0031391262       -0.6312504434        0.5353594741
 C         -2.7165464283       -0.3511350947       -0.3954704113
 C         -4.0136836814       -0.1390189675       -0.7744743009
 H        -10.1694777914       -3.6302919117        0.2002573983
 H         -7.8302546958       -4.2071873797        0.7674774455
 H         -6.0576144985       -2.5296110478        0.5509059102
 H        -10.6914380264       -1.3507259451       -0.6427534864
 H         -9.4838155752        2.8727595363       -1.8792850434
 H         -7.8279767773        4.7153382064       -2.0863276091
 H         -5.4993226897        4.3419554240       -1.3343588684
 H         -4.8234843244        2.1626384157       -0.4464579229
 H         -5.5664853090       -0.6967901727        2.1984417827
 H         -3.2179549246       -1.0743081976        2.8909895509
 H          1.9371489878       -0.1822795878       -1.0729152844
 H          4.2819538552        0.2206357071       -1.7246403394
 H          5.4148744661        1.8375822803        1.6623249110
 H          6.6406836469        3.6938782459        2.6878444272
 H          8.9990095996        4.1232701152        2.0707373722
 H         10.0956051177        2.6793561003        0.3705424717
 H         10.0637163583       -0.7600922338       -2.6369153244
 H          8.9748486870       -2.6979783107       -3.7486542575
 H          6.6767986669       -3.3400862922       -3.0925631510
 H          5.4721009163       -2.0479603510       -1.3908651069
 H          5.5528065656       -0.6657717009        2.2684996200
 H          3.1991040141       -1.0981656516        2.9192553795
 H         -1.9142550136       -0.2709607940       -1.1121636099
 H         -4.2524566137        0.1054611843       -1.7998469071
  69
  -117.085352362300       1.690948945404305E-002 !
 C         -9.4368803728       -2.7455794387        0.7819892506
 C         -8.1253138406       -3.0016367983        1.1437532310
 C         -7.1179562189       -2.1140474318        0.8123977733
 C         -7.4040633109       -0.9355681607        0.1235493211
 C         -8.7304202962       -0.7154265838       -0.2866484706
 C         -9.7342194894       -1.6076639701        0.0510857062
 O         -9.0888975557        0.3591883060       -1.0510199709
 C         -8.1155562814        1.2620877547       -1.3728987630
 C         -8.4955002582        2.3512384693       -2.1392165753
 C         -7.5723447792        3.3321065582       -2.4606680682
 C         -6.2769476188        3.2342011653       -1.9820238883
 C         -5.8892084630        2.1471421415       -1.2207298916
 C         -6.7882616026        1.1200635517       -0.9332609503
 N         -6.4234958043       -0.0044804184       -0.2009851515
 C         -5.0846047805       -0.1938117487        0.1921601140
 C         -4.7542822486       -0.3668093533        1.5477591131
 C         -3.4530100168       -0.5382844549        1.9277258789
 C         -2.4124057050       -0.5232423127        0.9660643846
 C         -1.0755576153       -0.6696467611        1.3734306656
 N         -0.6447375878       -1.0016453359        2.5897496641
 N          0.6585592923       -1.0405067307        2.5677086340
 C          1.0679477373       -0.7132893875        1.3419257377
 C          2.3994003444       -0.5550885867        0.9222617592
 C          2.7222176260       -0.0041700003       -0.3422809265
 C          4.0262468064        0.2150981716       -0.6950010086
 C          5.0664491318       -0.1192203102        0.1855479878
 N          6.4094671210        0.1423035106       -0.1499552015
 C          7.1928101896        0.9336220748        0.6834764625
 C          6.6659616052        1.5961302752        1.7922071582
 C          7.4796739040        2.3501814243        2.6171831983
 C          8.8324754987        2.4736690740        2.3493476372
 C          9.3648979429        1.8678658239        1.2236443433
 C          8.5547289815        1.1159714170        0.3892745451
 O          9.1337795083        0.5873296909       -0.7297565696
 C          8.3416836938       -0.1436820785       -1.5695887052
 C          8.9384027338       -0.6512256654       -2.7115079668
 C          8.2097851721       -1.4405785811       -3.5853962540
 C          6.8905138656       -1.7434415227       -3.2949419599
 C          6.2870108166       -1.2386932048       -2.1575963096
 C          6.9885102446       -0.4024472575       -1.2897269923
 C          4.7577045483       -0.6968144464        1.4304140358
 C          3.4589773379       -0.9091347408        1.7943686866
 O         -0.0113013906       -0.4741946905        0.5193362625
 C         -2.7561498286       -0.3508138692       -0.3970670379
 C         -4.0626463091       -0.1987081780       -0.7710599014
 H        -10.2235858577       -3.4328966029        1.0490181973
 H         -7.8769825555       -3.9009558155        1.6854309753
 H         -6.0979847103       -2.3359127765        1.0796948607
 H        -10.7387751269       -1.3925219236       -0.2760053257
 H         -9.5210917631        2.4122662740       -2.4658343955
 H         -7.8715923554        4.1742003698       -3.0639296737
 H         -5.5584146896        4.0098708651       -2.1965096453
 H         -4.8841146720        2.0917883178       -0.8360797284
 H         -5.5396969691       -0.3328998311        2.2887055231
 H         -3.1821581246       -0.6617945228        2.9632426987
 H          1.9200327330        0.2721602977       -1.0087372759
 H          4.2645770386        0.6800171873       -1.6410197521
 H          5.6116237045        1.5197177895        2.0013276705
 H          7.0477172442        2.8443226386        3.4734031259
 H          9.4689538124        3.0523865895        2.9994073426
 H         10.4070086781        1.9699978942        0.9669762297
 H          9.9765099507       -0.4208238236       -2.8897107047
 H          8.6780207537       -1.8279190732       -4.4760961934
 H          6.3225741330       -2.3820001083       -3.9534520080
 H          5.2672228333       -1.5008913509       -1.9283676340
 H          5.5652556384       -0.9830666681        2.0885451850
 H          3.2059458361       -1.3506004623        2.7439746008
 H         -1.9710096665       -0.3634645002       -1.1368844898
 H         -4.3243753291       -0.1001926946       -1.8149703082
