121
 energy: -168.941436371367 gnorm: 0.000042950873 xtb: 6.7.1 (edcfbbe)
C          -10.75258066301738       -5.31562720655413        1.16843990389293
C          -10.91588186438458       -4.44488324799955       -0.08648197862045
C          -10.69106118097828       -5.29783519098587       -1.34402956662679
C          -12.35619551096517       -3.92396626807509       -0.11841869347145
C           -9.88760294551001       -3.32219672948924       -0.04953044568005
C           -8.52543319183161       -3.65199389804561       -0.02818473876252
C           -7.52331017543774       -2.70384132596585        0.01671028207884
C           -7.89070692560224       -1.36730372827406        0.05254149949498
C           -9.25380619256237       -1.00706816326360        0.00419101409984
C          -10.24153781710775       -1.98279651268985       -0.04243043261632
C           -9.29610890518109        0.42989168371983       -0.00048810076376
C          -10.34028349158937        1.34595518008088       -0.02422294236314
C          -10.06619334310926        2.70373502961354        0.00050419595289
C          -11.15836822317430        3.76437319062797       -0.03591684141706
C          -12.56301827716423        3.16045917661279       -0.13135154259939
C          -10.94514215254036        4.66472409819429       -1.26218768493084
C          -11.08789468676619        4.60723917688230        1.24631558933693
C           -8.72731380259474        3.11279212616754        0.07217924677717
C           -7.67053778699571        2.22530273341993        0.09669835681863
C           -7.95645000838728        0.86973289045939        0.03806444268552
N           -7.11145693010076       -0.22479551848761        0.07169033112647
C           -5.71411098874659       -0.18306161145536        0.09185115969695
C           -5.02030154845449        0.63978916033685       -0.79383453160528
C           -3.64234592385099        0.68412013541842       -0.77087979464598
C           -2.91463252747927       -0.10360559546659        0.12153439320151
C           -1.45171717412859       -0.07998945446975        0.12656292671764
C           -0.69838402679639       -1.20935262625995        0.37207988044223
C            0.70211264245367       -1.20772765227904        0.36716543012591
C            1.45258569377751       -0.07652236919196        0.11931818088972
C            2.91548956771480       -0.09903965039181        0.10723767719988
C            3.62181752032486       -0.94496303429733        0.96481448895355
C            5.00024404133502       -0.98227324624821        0.94949509785613
C            5.71508038918692       -0.17822268850251        0.06350568918707
N            7.11251315045951       -0.22131480201188        0.03788010407251
C            7.88776017659342       -1.36433167379255       -0.02783969121727
C            7.51459578541518       -2.69601334034031       -0.12760695824303
C            8.51305904621548       -3.64517453095790       -0.21354693299832
C            9.87663807725644       -3.32034809620057       -0.21234691322938
C           10.90047993337706       -4.44384316493439       -0.30710515132229
C           10.71505909433899       -5.39827175139097        0.88212841258217
C           12.34330869041506       -3.92962396531281       -0.28067794121122
C           10.69116532448488       -5.20767727576259       -1.62340295694556
C           10.23627008917387       -1.98447395292545       -0.13746734703279
C            9.25240164531287       -1.00758899205718       -0.04996746336075
C            9.29945767819456        0.42785835571102        0.01385444837520
C           10.34642201003891        1.34049508158437        0.04470123908493
C           10.07612169659121        2.69664889535010        0.12964739533365
C           11.17195302006757        3.75393645071866        0.15409255371719
C           12.57674549280661        3.14866367316285        0.06968256190358
C           11.07671364838484        4.55444013145091        1.46163502238758
C           10.98720273611486        4.69498203352988       -1.04598585490249
C            8.73764154648229        3.10713242305832        0.20126455302583
C            7.67797409161072        2.22318067179238        0.17320557837968
C            7.96087083539421        0.87043353752043        0.06049725364170
C            5.01839670614768        0.66993818010696       -0.79520503205305
C            3.64032726002328        0.71217830126041       -0.76667463571768
C            0.71957785819977        1.11053194384273       -0.13028386011762
N            1.21174483279175        2.32964384359420       -0.35692554120630
S           -0.00700775758350        3.36107346214255       -0.54653057115966
N           -1.22106736821429        2.32499728411207       -0.35335013270225
C           -0.72296903838551        1.10814486380871       -0.12788765202575
C           -3.61685858956445       -0.92643613687653        1.00402671356955
C           -4.99556730643902       -0.96176064747113        0.99741764349961
H          -10.89690897967448       -4.71429370867749        2.06418338500241
H          -11.48893995005779       -6.11691063165308        1.16773228718542
H           -9.76342308571392       -5.76300381311429        1.21506142199348
H          -11.43713367925228       -6.08815835769552       -1.39925803949844
H           -9.70761050369930       -5.75977714847904       -1.34099986836522
H          -10.77450822103553       -4.68064893763883       -2.23668171021730
H          -12.53473795426387       -3.32103175535097       -1.00603073513519
H          -12.57828994944487       -3.33181778471415        0.76657394154200
H          -13.04544809344909       -4.76606250426513       -0.14029960748141
H           -8.23237645279153       -4.69081007005471       -0.05112121358314
H           -6.48583743040941       -3.00306320232261        0.01119075084994
H          -11.27213049483413       -1.67115360531105       -0.07681937306822
H          -11.35092777506560        0.97442211541136       -0.05741850230573
H          -12.67097346228867        2.56299959546276       -1.03393103827964
H          -12.78368370270178        2.54169490200399        0.73559447609810
H          -13.29942282515423        3.96108417721147       -0.16803283901881
H           -9.98792075783400        5.17682983706491       -1.21789315115859
H          -11.73048122201780        5.41607656260315       -1.31678205749257
H          -10.97158973652789        4.07031092132641       -2.17362991714782
H          -11.21369388687605        3.97215797102400        2.12131551862572
H          -10.13350991996057        5.11950479812822        1.33276974634288
H          -11.87756892834608        5.35603843972839        1.24639656617585
H           -8.49771541456702        4.16678429569173        0.11397902652191
H           -6.65476778540255        2.58427088227768        0.16986836985960
H           -5.56904300484779        1.23012677528806       -1.51212199996310
H           -3.11655121455765        1.32175745159309       -1.46381791276827
H           -1.20471247257271       -2.14674955636163        0.54773762768858
H            1.21048259560344       -2.14486952555589        0.53769881971479
H            3.08568580809194       -1.55573446474800        1.67587768440619
H            5.53423267607125       -1.61997873481425        1.63823018001317
H            6.47555773946510       -2.98912801996776       -0.15156530066183
H            8.21616225591284       -4.68036321056172       -0.28916332899675
H            9.72540784598174       -5.84685604847242        0.88154077502293
H           11.45093439519385       -6.19880708226063        0.83838168444927
H           10.84489750326971       -4.86036488657474        1.81944386623454
H           12.54191718415270       -3.27630188932122       -1.12737655237618
H           12.55017270338382       -3.39193825848573        0.64202171435976
H           13.02928543372323       -4.77260957779761       -0.33929429925094
H            9.70261258863325       -5.65648940717489       -1.66921289935612
H           11.42985661550957       -6.00121898971805       -1.71796082766467
H           10.79833929173540       -4.53328696870814       -2.47106665463143
H           11.26841326646302       -1.67636777238994       -0.15105384999499
H           11.35630078226903        0.96750396982807        0.00523287648110
H           12.70660565624039        2.58891374631865       -0.85389816299158
H           12.77258904361316        2.49343202119809        0.91557790826102
H           13.31639437515545        3.94698812340235        0.08534773886021
H           11.18059349538901        3.89053624850143        2.31791615688011
H           11.86953415890346        5.29873539545141        1.50364057873974
H           10.12326967150118        5.06895375115943        1.54432347723517
H           11.77427396641851        5.44639575975501       -1.05815954944659
H           11.03317236765383        4.13105890160942       -1.97586572539770
H           10.02943093590849        5.20648838320577       -1.00556101358749
H            8.51072044671143        4.15920130833398        0.28519711503762
H            6.66213393932577        2.58155033413303        0.24870805456785
H            5.56481677894458        1.28173935564053       -1.49726775663142
H            3.11219309727050        1.36827518205025       -1.44019808603150
H           -3.07656815620354       -1.51896823427330        1.72740060982675
H           -5.52612642594821       -1.57797373037999        1.70786646874127
