121
 energy: -168.884777489668 gnorm: 0.000055921923 xtb: 6.7.1 (edcfbbe)
C          -10.65775860953299       -5.33476023485433        1.14609143769675
C          -10.88980857675159       -4.41429631606049       -0.06193195947569
C          -10.72228559963545       -5.21256183190089       -1.36374388157859
C          -12.33250318817353       -3.90297886246250        0.00007334623801
C           -9.86723004148953       -3.28787613838273       -0.02925686269517
C           -8.50383972701937       -3.60743723221657       -0.07780597786282
C           -7.50662387019471       -2.65312078522356       -0.03959574281181
C           -7.88216741877550       -1.32144858807858        0.06325472296886
C           -9.24901966902202       -0.97090687385759        0.08006365317564
C          -10.23056993270112       -1.94944874049174        0.03799959762762
C           -9.30032518198720        0.46799623322781        0.12542101407664
C          -10.34906980324997        1.37333659751501        0.18280556172843
C          -10.08165218244552        2.73430009641897        0.24793960544811
C          -11.18185434273287        3.78434037712444        0.29803616426748
C          -12.58495478061011        3.17113750971256        0.25346425455410
C          -11.03328636814507        4.72178396751108       -0.91001855469905
C          -11.05395883750814        4.58980017645254        1.59992287596824
C           -8.74406794850504        3.15093669824158        0.27771161425528
C           -7.68129937996329        2.27104181951368        0.22336007915753
C           -7.96208188079002        0.91593554225115        0.12352448758632
N           -7.11012844484932       -0.17363963955322        0.08847745048132
C           -5.72001580546011       -0.12453810482974        0.07447200511939
C           -5.04357684404990        0.76360053665711       -0.76976561928458
C           -3.67242845164818        0.80712567539594       -0.78339834111112
C           -2.89713026485189       -0.03432083565728        0.04036614690895
C           -1.46231391833930        0.00319771464879        0.01234913501367
C           -0.68155473616696       -1.09882669743786        0.45947029315283
C            0.68149731834816       -1.09931419433098        0.45804127089773
C            1.46276831472361        0.00276362451451        0.01113280095373
C            2.89755456878678       -0.03590893521941        0.03735086187107
C            3.59913970367116       -0.93014992093394        0.87396581435516
C            4.97077794764270       -0.97505776465127        0.88946065359498
C            5.72074200917268       -0.12597277721885        0.06841041871273
N            7.11099568706503       -0.17372431362843        0.08243104365692
C            7.88443382139959       -1.31951096249101        0.03278913155154
C            7.51024201502278       -2.64856690792070       -0.10280761376555
C            8.50859900656687       -3.60056043635355       -0.16336969492716
C            9.87156806923097       -3.28062985340363       -0.10585149266341
C           10.89564248838267       -4.40439844313180       -0.17001004386500
C           10.66418539799895       -5.36096601705596        1.00970369781922
C           12.33755019778228       -3.89312956969490       -0.09151284007005
C           10.73036565068111       -5.16372133078022       -1.49527782590740
C           10.23345867162622       -1.94394363589106       -0.00388193958315
C            9.25081357439298       -0.96777368693855        0.06136182722593
C            9.29999071107394        0.46969195966834        0.14206866222758
C           10.34691953429389        1.37493498214801        0.22760558820101
C           10.07691344207070        2.73351270050648        0.32491211382376
C           11.17520050887311        3.78295199198938        0.41470973077460
C           12.57946550425686        3.17319916742010        0.35981778791757
C           11.03659731585190        4.54405289157713        1.74203405241861
C           11.03411026265966        4.76028946628297       -0.76209204006109
C            8.73854360582508        3.14762462792109        0.35588088317243
C            7.67747536157987        2.26771928928230        0.27483709795219
C            7.96112217966210        0.91578228445727        0.14528599367340
C            5.04380260836798        0.77419391493394       -0.76240819185158
C            3.67263173312845        0.81652609609955       -0.77560749829434
C            0.72344175218169        1.11544244965823       -0.46757828131429
N            1.23115560947964        2.26090207763876       -0.91224373425430
S           -0.00097084780317        3.27342195906258       -1.31547849794075
N           -1.23229097657097        2.25967524207113       -0.91335368851734
C           -0.72337128720600        1.11493871958939       -0.46815843750602
C           -3.59759001233725       -0.91683205701864        0.88992673142939
C           -4.96925149764492       -0.96072138821195        0.90808425866995
H          -10.75297165444712       -4.77118795726163        2.07234066533710
H          -11.39374553206199       -6.13610027826193        1.15211171713837
H           -9.66838587431221       -5.78307038851869        1.12044024133321
H          -11.46280627950057       -6.00831434067639       -1.41156074488640
H           -9.73584745278987       -5.66293717969114       -1.43094869988750
H          -10.85912655027897       -4.56168101702669       -2.22524761569479
H          -12.56110511750915       -3.26998218931574       -0.85436587153521
H          -12.51203781816067       -3.34637297303350        0.91714384424269
H          -13.01658408413583       -4.74914517870300       -0.01775825462129
H           -8.20525953445835       -4.64170934146737       -0.15305451711263
H           -6.46883473820127       -2.94257346840073       -0.10382529505577
H          -11.26387167726548       -1.64687595249452        0.05321369215072
H          -11.35815621607737        0.99732910621369        0.18138521384458
H          -12.73577362343121        2.60499016049406       -0.66290380971581
H          -12.75664558192179        2.52191732858352        1.10903247801616
H          -13.32738754459913        3.96625235145008        0.28223424455980
H          -10.07739892557799        5.23803444165727       -0.89806720209622
H          -11.82364176596782        5.46951923420848       -0.90216725010132
H          -11.10302651846284        4.15511112473426       -1.83662911011689
H          -11.12985816501406        3.92903780351562        2.46149237924308
H          -10.10221112043897        5.11106541034326        1.65372983177529
H          -11.85006346383380        5.32898872394344        1.66093766909976
H           -8.51890233262881        4.20375304973130        0.35078820680121
H           -6.66621668108669        2.63468195590280        0.27179728402980
H           -5.60977529029979        1.39043589516941       -1.44248580365952
H           -3.16269632521977        1.48359822702159       -1.45004570452184
H           -1.19351129980501       -1.99613186608642        0.77138224536443
H            1.19271283137702       -1.99736962486397        0.76874448950664
H            3.05556013902469       -1.56393876389080        1.55711019603146
H            5.48237161972354       -1.63983158383699        1.56986170127523
H            6.47263534592295       -2.93696147509539       -0.17501035335153
H            8.21143745721193       -4.63297380275016       -0.26493372447926
H            9.67522079136663       -5.80920028187334        0.97060544602131
H           11.40084502495456       -6.16150019073226        0.99154307986500
H           10.75912533232983       -4.82549592987653        1.95250119600870
H           12.56645137548252       -3.23563658038077       -0.92716598248621
H           12.51494550441585       -3.36274446924357        0.84136907520332
H           13.02279704964391       -4.73752818065796       -0.13265453870405
H            9.74455163027442       -5.61313751322465       -1.57673116491326
H           11.47210374507663       -5.95662166518024       -1.56610673389011
H           10.86712763733320       -4.48714766897681       -2.33674839373058
H           11.26644604988034       -1.64083626284669        0.02026832656062
H           11.35660009974796        1.00056684187120        0.22302596762343
H           12.73620276761575        2.63449458438646       -0.57197267213357
H           12.74733309995372        2.49924955333750        1.19683851077368
H           13.32058835831048        3.96806004125299        0.41623888963383
H           11.10487980064266        3.85387742348702        2.58079537886012
H           11.83226121167961        5.28033088410895        1.83505180120148
H           10.08435061381680        5.06333646144994        1.80531409188082
H           11.82203121965187        5.50952504898004       -0.72161438550018
H           11.11389887627539        4.22579631027534       -1.70683999336911
H           10.07667173023662        5.27334573241907       -0.74117035203175
H            8.51136276291748        4.19807262878130        0.45286893201440
H            6.66138735877399        2.62823197001685        0.32595364430503
H            5.60972164432670        1.41163860704233       -1.42541911209573
H            3.16238313562132        1.50179014112705       -1.43279154314297
H           -3.05260609991146       -1.54070160728599        1.58112197547565
H           -5.47998300200970       -1.61437906589613        1.59971974831716
