121
 energy: -168.884791175056 gnorm: 0.000044468257 xtb: 6.7.1 (edcfbbe)
C          -10.65478616823551       -5.35844480279513        1.10832439207268
C          -10.88840217878940       -4.44904187083728       -0.10774312508645
C          -10.72160500784567       -5.25871874092739       -1.40255402041879
C          -12.33125746317592       -3.93779053403421       -0.04886729379042
C           -9.86629088612348       -3.32196146798808       -0.08635675133099
C           -8.50274866154177       -3.64143492206128       -0.13112299169493
C           -7.50592762626075       -2.68638577785065       -0.10205316557659
C           -7.88200355234627       -1.35390338752814       -0.01261654427505
C           -9.24899636952743       -1.00380820528914       -0.00084505590192
C          -10.23017488067526       -1.98306872859783       -0.03339566270295
C           -9.30098007919159        0.43543887384009        0.02907298932530
C          -10.35035554554103        1.34061324442775        0.07585980354169
C          -10.08387857308310        2.70232916543859        0.12720061714114
C          -11.18484497223306        3.75204333234945        0.16551227915624
C          -12.58747668521390        3.13727611705700        0.12830092332672
C          -11.03701525455720        4.67558584334818       -1.05330312829304
C          -11.05752626097450        4.57243699265814        1.45809739482588
C           -8.74657820973863        3.12005311091080        0.15376980227256
C           -7.68319625656376        2.24028469241458        0.10997918735840
C           -7.96296483883184        0.88402880356341        0.02400692092565
N           -7.11046219400322       -0.20552819138935        0.00149888188359
C           -5.72038186529771       -0.15633134548317       -0.01108372959465
C           -5.04278112695056        0.72430886938363       -0.86223706186431
C           -3.67162693177968        0.76744048397174       -0.87480836467196
C           -2.89723785905910       -0.06685048320162       -0.04288750767932
C           -1.46243082243224       -0.03009934653732       -0.06997711038926
C           -0.68260907021658       -1.12728947162331        0.39076165796349
C            0.68043151179793       -1.12830571025867        0.39117291477916
C            1.46239241683262       -0.03207574191177       -0.06848760665554
C            2.89710947086874       -0.07122972627139       -0.04058519704351
C            3.59731734364750       -0.95104847011510        0.81217066179440
C            4.96893045636590       -0.99708558060966        0.82915876148041
C            5.72021716820435       -0.16509853390257       -0.00810784428134
N            7.11028012382363       -0.21588577297777        0.00400068069646
C            7.88142310858841       -1.36429140075218       -0.02254790012101
C            7.50461145974896       -2.69603276005977       -0.11949801291832
C            8.50114169769952       -3.65089856602947       -0.16236193290886
C            9.86498011214874       -3.33188798683889       -0.12413943935201
C           10.88688366747959       -4.45870489052440       -0.16398666260020
C           10.66091178470645       -5.38196485834896        1.04303041365469
C           12.33010259077051       -3.94811960964161       -0.10827428901664
C           10.71206778098520       -5.25377852580078       -1.46680333520055
C           10.22936174840070       -1.99353634432799       -0.06147730156173
C            9.24855914745657       -1.01446307792098       -0.01490610238059
C            9.30102973745019        0.42450388721793        0.02650978449064
C           10.35057791835098        1.32941685401653        0.07485771929962
C           10.08424547145888        2.69069671858849        0.13777086217572
C           11.18526631012390        3.74031816912417        0.17698244083512
C           12.58771386529776        3.12611536125493        0.12598040581881
C           11.06613476913897        4.55117239198836        1.47633783220767
C           11.02934323849112        4.67282460841290       -1.03398681271481
C            8.74709680764589        3.10815695755565        0.17493004815520
C            7.68356490763877        2.22870551806590        0.12943939904601
C            7.96309005632189        0.87321159914360        0.03130993873581
C            5.04424168509066        0.72091770430547       -0.85499262342474
C            3.67320853652328        0.76588569734351       -0.86817968238005
C            0.72431825391375        1.07483375456600       -0.56196443615036
N            1.23344825725338        2.21410499019328       -1.02069525356300
S            0.00241294415031        3.22253002052334       -1.43724542753645
N           -1.23006393913742        2.21508536841651       -1.02284477197688
C           -0.72246770762408        1.07552546735637       -0.56313140721683
C           -3.59890345835824       -0.94152168137891        0.81383131693738
C           -4.97055682574930       -0.98510047625013        0.83079685803288
H          -10.74791124667977       -4.78620788417731        2.02945821924587
H          -11.39131807569200       -6.15916003022537        1.12314442605551
H           -9.66581071451568       -5.80774490816628        1.08507074647121
H          -11.46123296030270       -6.05573320752576       -1.44242735176227
H           -9.73468242861490       -5.70845346518741       -1.46694310121795
H          -10.86016874582566       -4.61557063764874       -2.26956360139032
H          -12.56130484250109       -3.31319354355510       -0.90908246985150
H          -12.50982663263627       -3.37241047070202        0.86302400655582
H          -13.01499856427281       -4.78437893391467       -0.05765733592688
H           -8.20370600976203       -4.67628627791744       -0.19592473014928
H           -6.46802855582752       -2.97615671449772       -0.16286190619522
H          -11.26357145950233       -1.68067364161667       -0.02219539836005
H          -11.35916366852950        0.96386412796993        0.07721258086733
H          -12.73872122858747        2.56201372341715       -0.78229397260420
H          -12.75780947179816        2.49636655214075        0.99038167226222
H          -13.33053707441870        3.93201979587970        0.15001915026822
H          -10.08250118898586        5.19449204866412       -1.04602517432555
H          -11.82939730488043        5.42120970534516       -1.05543226052310
H          -11.10386115406517        4.09784799054994       -1.97327715936558
H          -11.13464444489742        3.92168909896769        2.32717292008855
H          -10.10548220112056        5.09365739267813        1.50678967442524
H          -11.85316762378044        5.31283873714716        1.50981479413886
H           -8.52214592520535        4.17374876258509        0.21555436087281
H           -6.66844607105251        2.60519540187042        0.15564417943781
H           -5.60805490805696        1.34529187386826       -1.54110774966031
H           -3.16108607319001        1.43792990312432       -1.54685422207856
H           -1.19527718229512       -2.02076442684399        0.71228222745791
H            1.19131513408486       -2.02268651453943        0.71293561778963
H            3.05246652775730       -1.57158881643121        1.50641896606152
H            5.47919599696156       -1.64911731957306        1.52268082601359
H            6.46631032383428       -2.98524387179064       -0.17592505609702
H            8.20160054779048       -4.68519492940070       -0.23331067460882
H            9.67261036274436       -5.83273462964290        1.01979347830388
H           11.39882144673938       -6.18155960313994        1.04509072581183
H           10.75788552493913       -4.81995489370599        1.97003912596687
H           12.55487773345875       -3.31389997023548       -0.96281350862538
H           12.51428416116556       -3.39299657876161        0.80878309798642
H           13.01373995548385       -4.79453098772410       -0.13084712123247
H            9.72338000178399       -5.69954896738606       -1.53185575364691
H           11.44895518982666       -6.05266052478845       -1.51844213477091
H           10.84909216190370       -4.60179393709767       -2.32745003388204
H           11.26286423177108       -1.69137768913652       -0.05363613582909
H           11.35943180863970        0.95285008055148        0.06809374440969
H           12.73272282111276        2.55702309633754       -0.78950338123064
H           12.76411162113941        2.47944995185874        0.98252849306544
H           13.33078416523706        3.92084897467655        0.14787394674450
H           11.14740902383104        3.89390645583587        2.34008684229916
H           11.86290614476254        5.29027805801452        1.52908831380758
H           10.11496729470333        5.07306959149613        1.53426617213788
H           11.82097194062531        5.41924949326470       -1.03527945149723
H           11.09121832261611        4.10201735210627       -1.95862051210863
H           10.07439618650973        5.19070143132189       -1.01716621518816
H            8.52298845097560        4.16129629762052        0.24653502533640
H            6.66893402537426        2.59291215107887        0.18304853794112
H            5.61081402639293        1.34475831293432       -1.53018435762261
H            3.16397567830376        1.44034938934037       -1.53722287747479
H           -3.05496865571258       -1.55932960832751        1.51125376458118
H           -5.48197379740037       -1.63252003820678        1.52776823041946
