38
 energy: -62.044071475617 gnorm: 0.000031169922 xtb: 6.7.1 (edcfbbe)
C           -3.57919618325656       -3.21611781250969       -0.14195784783396
C           -2.28758279146278       -3.40609020763831       -0.59785102377481
C           -1.38530149566634       -2.35593367376427       -0.59536593730692
C           -1.75621797072488       -1.10592583880047       -0.11315800002658
C           -3.08125533122095       -0.90867338644721        0.28819596143156
C           -3.98201146634772       -1.96080987356871        0.28242367429513
O           -3.53060966831600        0.32129554714285        0.68608131427432
C           -2.76380335792186        1.39567188500602        0.29826872511085
C           -3.36686957195636        2.64097549358667        0.33301710675468
C           -2.65276001076368        3.76965413514584       -0.03314129860390
C           -1.34269877197059        3.64090602173746       -0.45223691418030
C           -0.73740439877128        2.39526932273312       -0.50064334571276
C           -1.43118661434830        1.25822360130360       -0.11089844194731
N           -0.85689217879346       -0.02849183759999       -0.07209390608127
C            0.49886683690308       -0.25918666639354        0.11331434108990
C            0.90112433369855       -1.32975077096873        0.96250036530049
C            2.22908090975384       -1.54529666341701        1.16550854687029
C            3.18241984244269       -0.71308368019778        0.53228058707452
C            4.57085871206720       -0.87098010002772        0.67657609483068
C            5.43345965106787       -0.01519000190421        0.04495647903660
C            4.93940167531092        1.02815063406485       -0.75077011508175
C            3.59219264732654        1.21017099560901       -0.90828581799637
C            2.68150814352063        0.34283937805761       -0.27344520832868
N            1.36209178407426        0.53939793360412       -0.46420597110519
H           -4.28087821217693       -4.03535945552734       -0.13173838095540
H           -1.97461394683240       -4.37292027010347       -0.96072168467833
H           -0.38080531351274       -2.50319719678121       -0.96239668283970
H           -4.98975671361199       -1.77624066010028        0.61856857607193
H           -4.39208143237559        2.70359841993979        0.66178916843854
H           -3.12565463720513        4.73864013152893        0.00626852779760
H           -0.77871883669700        4.51238687400095       -0.74750533872540
H            0.28535127467231        2.28969063084537       -0.81937717081074
H            0.15389241835160       -1.92940374823649        1.45905468810236
H            2.56882002453043       -2.33622281368764        1.82020385476854
H            4.94273738390234       -1.67827357385068        1.29218754350081
H            6.50065583221268       -0.13860757967646        0.15603264188379
H            5.63599150898497        1.69201097392585       -1.24180823089098
H            3.19784792511090        2.00687283296083       -1.51962587975608
