38
 energy: -62.044071376695 gnorm: 0.000040010397 xtb: 6.7.1 (edcfbbe)
C           -3.49039715806554       -3.15362871768108       -0.41562085638113
C           -2.19643375615729       -3.34603776373552       -0.86373297082687
C           -1.27002934307636       -2.32032616421845       -0.78213095946129
C           -1.61911625963545       -1.09432534719388       -0.22740499214823
C           -2.94532242550975       -0.89065253767809        0.16687330967224
C           -3.87032056064746       -1.91801413899186        0.08142703739745
O           -3.37218606470751        0.32211903598020        0.63589259836691
C           -2.57406606312861        1.39999326286980        0.32974611989144
C           -3.14772646091534        2.65495663586071        0.43784741787085
C           -2.40160505417750        3.78707322448884        0.15583189508761
C           -1.08899752917892        3.65344158194062       -0.25362718596319
C           -0.51285781289339        2.39899353471447       -0.37509416140475
C           -1.23904910461707        1.25648933238178       -0.06938612918743
N           -0.69568977795102       -0.04369533718761       -0.10589651784546
C            0.65162269214626       -0.31818138285578        0.08173490214702
C            1.01704590418258       -1.44918073633612        0.86677094648981
C            2.33669095648576       -1.70826932814317        1.07319834239350
C            3.31783287981254       -0.86065167701212        0.50636672699393
C            4.70008527127916       -1.05964515050238        0.65907806032443
C            5.59098713615228       -0.18662463781312        0.09382179913514
C            5.13238890932898        0.91540852019868       -0.64174506996214
C            3.79210641614304        1.13841768048070       -0.80546955709384
C            2.85282773374136        0.25492959410614       -0.23815665342625
N            1.54114779747964        0.49414494072190       -0.43333699083383
H           -4.21116606109536       -3.95452578578591       -0.46730729112297
H           -1.90034982248263       -4.29558007322909       -1.28217616803289
H           -0.26363778755875       -2.46875198702641       -1.14345393980095
H           -4.87868402704947       -1.73030826042177        0.41398009551817
H           -4.17592878880261        2.72133766702255        0.75638313245480
H           -2.85174719677642        4.76285512800790        0.25243597860334
H           -0.50012040402586        4.52801938631445       -0.48398975504315
H            0.51168867345477        2.28918943076272       -0.68655649481555
H            0.24928127770785       -2.06109278150086        1.31466092164961
H            2.64877486861768       -2.54651041575119        1.68111744979598
H            5.04452159342483       -1.91209350555213        1.22800842558758
H            6.65337476501538       -0.34151133247038        0.21139080463790
H            5.85094545025004        1.59200472935202       -1.08101714115762
H            3.42489685745152        1.98063168421622       -1.37098738242059
