  38
        -61.95655124
 C         -3.4751905048       -3.1992727302       -0.3826990405
 C         -2.1067003440       -3.4438133231       -0.5246313676
 C         -1.1969557361       -2.4184527717       -0.4129537900
 C         -1.6224584636       -1.1083363473       -0.1585102179
 C         -3.0176783745       -0.8633560216       -0.0789880029
 C         -3.9230335480       -1.9088639851       -0.1740018669
 O         -3.5135311876        0.3935906369        0.0737974795
 C         -2.6358518592        1.4303515696        0.0932788797
 C         -3.1645882867        2.7139694814        0.1678664388
 C         -2.3235399809        3.8081229057        0.1993793444
 C         -0.9436809307        3.6247524412        0.1737413636
 C         -0.4057833738        2.3546865058        0.1150622998
 C         -1.2358210858        1.2348800584        0.0544483024
 N         -0.7391740479       -0.0576898133       -0.0073128141
 C          0.6276078544       -0.3050739472        0.2027867580
 C          1.0253346266       -1.1665122947        1.2187318799
 C          2.3758065495       -1.3578709846        1.4471903768
 C          3.3303207615       -0.6980801496        0.6335306371
 C          4.7097218552       -0.8527586119        0.7633157532
 C          5.5868261597       -0.1789405794       -0.0794424714
 C          5.0977533075        0.6478059661       -1.0769522699
 C          3.7327085383        0.8118963321       -1.2471649099
 C          2.8253004110        0.1511572659       -0.4040033535
 N          1.5112955554        0.3171864672       -0.5959500859
 H         -4.1817703139       -4.0101968633       -0.4530023393
 H         -1.7585255951       -4.4448157629       -0.7246246211
 H         -0.1421279771       -2.6089185161       -0.5322632106
 H         -4.9742266319       -1.6834741396       -0.0900876967
 H         -4.2368098141        2.8222377557        0.2025816814
 H         -2.7384720329        4.8019727603        0.2557548132
 H         -0.2854594908        4.4781925861        0.2104610992
 H          0.6623156955        2.2157423179        0.0926954038
 H          0.2760863979       -1.6301903825        1.8432770584
 H          2.7091403110       -1.9873261687        2.2570044605
 H          5.0913058898       -1.5160845206        1.5260136929
 H          6.6520575374       -0.3064346792        0.0456209451
 H          5.7818603765        1.1701799561       -1.7300208255
 H          3.3387996442        1.4692534094       -2.0070265618
