76
 energy: -121.786906808615 gnorm: 0.000047375916 xtb: 6.7.1 (edcfbbe)
C            0.02437369576456       -6.64173016693809       -1.82113497951890
C            1.21831320580334       -5.94175434142087       -1.73848657124302
C            1.21588224476944       -4.60538123964478       -1.38737502617789
C            0.01389592607120       -3.95394159593994       -1.11501121040131
C            0.00831354857583       -2.53838009707360       -0.73544952913237
N           -1.17237254667733       -1.95228408965360       -0.56132474626081
C           -1.18765420987278       -0.66943084156237       -0.20834881349821
C           -2.50992961825897       -0.05287538520137       -0.02510373200479
C           -2.71060392173697        1.30714998943057       -0.23710256153722
C           -3.97220426387033        1.86901331890395       -0.07047662859325
C           -4.18358534535353        3.30424034655332       -0.31677138875716
C           -5.31541694723466        3.76409595386261       -0.98886261395731
C           -5.46123282266600        5.12525466898347       -1.19769138999308
N           -4.58267376326648        6.02731941261316       -0.79013243621428
C           -3.50898333352524        5.59400723719965       -0.14923634939911
C           -3.25980254357563        4.25702380695940        0.11129690797554
C           -5.03187100694460        1.05957191496516        0.32585843688952
C           -4.84688860413042       -0.30290769861328        0.53998424603429
C           -5.97509287073146       -1.15185498043006        0.95355896946255
C           -6.15973709428931       -2.42187594929157        0.40845520106348
C           -7.24042229388008       -3.17814243647854        0.82970066422588
N           -8.11697075928145       -2.76506009026144        1.73137782326639
C           -7.94228485132491       -1.56090890498307        2.25182958849031
C           -6.90040885196867       -0.71825416182437        1.90212580121004
C           -3.58421388665977       -0.85264680526417        0.35256502221883
C           -0.00079743137254        0.03527939271960       -0.01088472579144
C            1.19168580980191       -0.65424791449851       -0.22773477952931
C            2.51136577158252       -0.02942947554086       -0.05392894010813
C            2.69223267236535        1.34330179097374       -0.18861377503898
C            3.94740732171362        1.91246536578131       -0.00075363840604
C            4.13105975055323        3.36537658341046       -0.14466826662243
C            3.51564865933786        4.07464092498692       -1.17550834725419
C            3.71995101188474        5.44162805410250       -1.26075446613794
N            4.47011546163206        6.12437593460150       -0.41077722821623
C            5.05630950582276        5.45351695855362        0.56796681498149
C            4.92541137019761        4.08652469337943        0.74588124085152
C            5.02555467827691        1.09535387988662        0.32354046375591
C            4.86557217722211       -0.28253800296747        0.43796868025444
C            6.01603698137005       -1.14233157276340        0.75661651164002
C            6.19641972469945       -2.37049040870171        0.12164352698515
C            7.29944684882637       -3.13855674442779        0.45443385871812
N            8.20106085779928       -2.77573112776676        1.35296402000711
C            8.03020998879709       -1.61195054908556        1.95942814536186
C            6.96801008809413       -0.76182259704884        1.70157438992619
C            3.60545223728398       -0.83619597323544        0.24572485625764
N            1.18375199277420       -1.93525068074784       -0.58956694930089
C           -1.18311644771344       -4.66283838712316       -1.20467158263745
C           -1.17507745336993       -5.99944637558593       -1.55461005110697
H            0.02851916578625       -7.68671408716525       -2.09438088475847
H            2.15270869469762       -6.44105673583248       -1.94914889751671
H            2.13592779548035       -4.04605195673479       -1.32259026850610
H           -1.89696862452364        1.92923334703050       -0.57845954980704
H           -6.05610632207672        3.07206888995506       -1.35885481775312
H           -6.32453535759148        5.51939880895136       -1.71874203533909
H           -2.81652221158949        6.36270220569040        0.17025935090171
H           -2.37490022560749        3.96287754470838        0.65455201642939
H           -6.01088193718614        1.49373345536744        0.46336119469372
H           -5.48456316165506       -2.80150130702586       -0.34256018377562
H           -7.41984483788370       -4.16687392089107        0.42670477533104
H           -8.67852158145796       -1.26099890444677        2.98687448563446
H           -6.79839552741723        0.24788215564190        2.37205307181344
H           -3.41076151023354       -1.90362549693038        0.52328473738838
H           -0.00687117303825        1.05499597303004        0.33437221788865
H            1.85862368545869        1.98021993199062       -0.44240721006368
H            2.90626324275354        3.56678993849178       -1.90737453901715
H            3.26140922030418        6.02541017448460       -2.04900728495994
H            5.66033197916163        6.04796496541443        1.24175245083695
H            5.41415644078020        3.59405828953630        1.57219036260424
H            6.00673283421201        1.53065015793048        0.44109457262045
H            5.50006557610951       -2.70840185812977       -0.62989601498263
H            7.47603515360963       -4.09535812975052       -0.02052387247896
H            8.78672314453503       -1.35267401614774        2.68930392193475
H            6.87214912352597        0.16899006307419        2.23881335588168
H            3.44851364927731       -1.89818181638663        0.35229798793258
H           -2.10805899211150       -4.14809128388760       -0.99734903883544
H           -2.10559587860672       -6.54406382708604       -1.62052592786197
