76
 energy: -121.705222905034 gnorm: 0.000062115816 xtb: 6.7.1 (edcfbbe)
C            0.00581800805685       -6.82376872399557       -0.25997088393965
C            1.20540567194893       -6.12876000866355       -0.27706666489384
C            1.20673121051736       -4.74829130148371       -0.21946009510851
C            0.00458915174390       -4.04804545148781       -0.14476351592318
C            0.00315273646165       -2.58587698489627       -0.09044986248749
N           -1.14491582737389       -1.94560424755844       -0.06462511809979
C           -1.19805250090076       -0.58110658355571       -0.02544179872631
C           -2.50575328387208        0.02531972412243       -0.00209923360186
C           -2.71361914629589        1.41204398576772       -0.04800866277048
C           -3.99310608403216        1.94429116195154       -0.03225591223417
C           -4.18488723084098        3.40079805160686       -0.10038664698977
C           -5.19655366293548        3.96205975791044       -0.88019569591877
C           -5.33372677407058        5.33909505698063       -0.90971907552550
N           -4.55137018533189        6.16055125705098       -0.23055763017589
C           -3.59025397959206        5.63799913990040        0.51187073391642
C           -3.36422253122120        4.27609900769858        0.61181914732202
C           -5.09928192452896        1.09709268989163        0.04259356517944
C           -4.91699113930773       -0.28548527132021        0.09202769040532
C           -6.07833855676873       -1.18426172352490        0.17538752733710
C           -6.12746445830857       -2.37222319844009       -0.55437769670391
C           -7.24476997512804       -3.18146109326166       -0.44092547079428
N           -8.27689148183946       -2.88582817781024        0.33015341008595
C           -8.23952049232620       -1.76289459858341        1.02587702157586
C           -7.17274533000541       -0.88127263782689        0.98531170151971
C           -3.63644453686247       -0.80743021825192        0.06298996420527
C           -0.00006128592117        0.13045284278716       -0.00579185419985
C            1.20001283767095       -0.57815859680464       -0.02834611508619
C            2.50638027364240        0.03040283574854       -0.00397688276323
C            2.71192811499705        1.41833851068042       -0.00297073315905
C            3.99055312192286        1.95162869347743        0.03017887118412
C            4.17798379454738        3.41032574204358        0.04500133618219
C            3.40600670518745        4.24922501308881       -0.75937060243963
C            3.62425377262780        5.61503462889803       -0.70678035579413
N            4.53318937701493        6.17400651792648        0.07388921260628
C            5.26894806919325        5.38707888411108        0.84043601439604
C            5.13521722255414        4.00953374995335        0.86417159332206
C            5.09910849226072        1.10472619148603        0.05175969386070
C            4.91966737977267       -0.27926589712503        0.04176253299000
C            6.08282300074764       -1.17933797750202        0.05348847873646
C            6.08766075801612       -2.34525322066384        0.81969108037679
C            7.20741548228699       -3.15860646194781        0.79366955804651
N            8.28260434786653       -2.88684233686263        0.07438289795214
C            8.28819614090273       -1.78408565071039       -0.65390575014313
C            7.22317051687362       -0.90071312464359       -0.70000582786976
C            3.63923925974586       -0.80171346672371        0.01905577059686
N            1.14941941962424       -1.94262319341448       -0.07302923049619
C           -1.19679983333282       -4.75325093466221       -0.12733302809295
C           -1.19443754974785       -6.13366255753823       -0.18513536987157
H            0.00631521599802       -7.90283041396380       -0.30531349042586
H            2.14055151550190       -6.66602783450909       -0.33583631908126
H            2.13225139691161       -4.19275598345201       -0.23535547126463
H           -1.87550207169313        2.08566266415667       -0.13188155553234
H           -5.85181910394509        3.33662204143525       -1.46630073447621
H           -6.10411037929542        5.81205091850868       -1.50503804841821
H           -2.97745668440669        6.34823499001123        1.05208376344202
H           -2.57712998932123        3.90032099901123        1.24733115234023
H           -6.09498182159210        1.51205218021345        0.06021693950641
H           -5.31731758848873       -2.64918956057610       -1.21082929549304
H           -7.32272959669628       -4.10900330867255       -0.99321346423797
H           -9.10587080156580       -1.56508698156045        1.64376604860187
H           -7.18421296611884        0.01512259884894        1.58564959588816
H           -3.47762224214946       -1.87301940541803        0.11894827843934
H           -0.00154022040152        1.20565315570559        0.03761239978070
H            1.87122532548029        2.09394871875234       -0.00337680061189
H            2.66319547186659        3.84166395600254       -1.42772935650806
H            3.04853123572479        6.29790695888591       -1.31833998458341
H            5.99722628603065        5.88950139721899        1.46393848029787
H            5.75072777204370        3.41321225580222        1.51965379264710
H            6.09406553536687        1.52117066769960        0.07486747333400
H            5.24040015626445       -2.60335766924672        1.43573595239832
H            7.25081820834743       -4.06991876298782        1.37597152383262
H            9.18869274558151       -1.60495110647823       -1.22702825402596
H            7.27156165779218       -0.02242138484623       -1.32474521508207
H            3.48316371590158       -1.86889101354926       -0.00506631841903
H           -2.12257533599673       -4.20127068586518       -0.06784537196951
H           -2.12905732758950       -6.67486633480570       -0.17132750839270
