  60
        -91.79152669
 C         -2.1978184503       -3.2568998900        1.7594321322
 C         -0.8672610326       -3.0531195416        1.4430846203
 C         -0.4805372884       -1.9388795977        0.7005044186
 C          0.9324077361       -1.6997311049        0.3772321252
 C          1.7884156316       -2.7531671590        0.0459603021
 C          3.1124312005       -2.5096621759       -0.2186392659
 C          3.6561692481       -1.2174352355       -0.1770388943
 C          5.0682130875       -0.9735264857       -0.4014392196
 C          5.9647363688       -2.0237731938       -0.6453681833
 C          7.3092158549       -1.8034631762       -0.8236617646
 C          7.8078230051       -0.5087834044       -0.7560148185
 C          6.9498862894        0.5391590282       -0.5224411766
 C          5.5724740055        0.3443749263       -0.3487140733
 C          4.6689500990        1.4590732463       -0.1239113680
 C          5.1211503972        2.7860718907       -0.1426803775
 C          4.2701152258        3.8462066932        0.0585966088
 C          2.9194434236        3.6108042647        0.2797275384
 C          2.4489353417        2.3198094754        0.2986026363
 C          3.2971362263        1.2201428305        0.1065990453
 C          2.7911371462       -0.1410794328        0.1148167178
 C          1.4504393999       -0.4180094495        0.4011686424
 C         -1.4574230092       -1.0448850022        0.2753814372
 C         -2.7921700358       -1.2405195356        0.6071298666
 N         -3.7516472576       -0.3049534194        0.1973249903
 C         -4.9460489201       -0.5832557540       -0.4349991454
 C         -5.4614459547       -1.8009041963       -0.8559912282
 C         -6.6865032893       -1.7967867884       -1.4946828102
 C         -7.3851270993       -0.6128767818       -1.7217757566
 C         -6.8660193984        0.6040803516       -1.3280895994
 C         -5.6361187521        0.6258446169       -0.6837382660
 C         -4.8098785485        1.6807745142       -0.1676243045
 C         -4.9511178307        3.0607300945       -0.1016108118
 C         -3.9522028911        3.8006206791        0.4986701373
 C         -2.8313255707        3.1796419705        1.0456694977
 C         -2.6689146868        1.8087560381        0.9929008586
 C         -3.6560676556        1.0615015014        0.3657148229
 C         -3.1642204767       -2.3539260529        1.3548273889
 H         -2.4850624406       -4.1199084473        2.3417033865
 H         -0.1190067927       -3.7483504533        1.7924799917
 H          1.4030709572       -3.7600965174       -0.0148784367
 H          3.7373919024       -3.3519176944       -0.4659909975
 H          5.6087658383       -3.0398443583       -0.6922939125
 H          7.9743207575       -2.6337711622       -1.0091980284
 H          8.8639007719       -0.3253008579       -0.8851172147
 H          7.3680234911        1.5311330615       -0.4690402965
 H          6.1607879267        3.0018308403       -0.3267780730
 H          4.6499277271        4.8569204003        0.0382331261
 H          2.2402914144        4.4368562368        0.4299060497
 H          1.3932010928        2.1713607178        0.4560454672
 H          0.7867138317        0.3829714384        0.6801211505
 H         -1.1871578493       -0.2028447741       -0.3435472807
 H         -4.9198577827       -2.7217217436       -0.7008723061
 H         -7.1106786440       -2.7322945433       -1.8283414689
 H         -8.3414768292       -0.6523581095       -2.2214301870
 H         -7.3993087940        1.5231798077       -1.5185300499
 H         -5.8286273637        3.5400695085       -0.5084682626
 H         -4.0413405854        4.8750496059        0.5580306114
 H         -2.0753799568        3.7831704221        1.5265606587
 H         -1.8095430342        1.3342880752        1.4423391883
 H         -4.1989786853       -2.4953824514        1.6271391781
