  60
  -91.4206432930000       0.213435808643204      !
 C         -2.2354156978       -3.0044803653        2.1017239702
 C         -0.9014707277       -2.8435879987        1.7746983478
 C         -0.5029463911       -1.8086832691        0.9313375157
 C          0.9125565947       -1.6219701547        0.5829829079
 C          1.7262558928       -2.7140113452        0.2731883612
 C          3.0386464238       -2.5175997432       -0.0757163489
 C          3.6146967640       -1.2397834600       -0.1181914234
 C          4.9915689951       -1.0370528657       -0.5264844663
 C          5.7827480081       -2.0973005679       -0.9910424992
 C          7.0819552518       -1.9088190180       -1.3967364846
 C          7.6363835345       -0.6358799662       -1.3563131642
 C          6.8801783051        0.4217475865       -0.9105969514
 C          5.5552056671        0.2564430332       -0.4840097193
 C          4.7584052394        1.3800734810       -0.0246409939
 C          5.3077823693        2.6631333971        0.1073135419
 C          4.5524612344        3.7381466027        0.5106094847
 C          3.2044616345        3.5623027800        0.7952636997
 C          2.6454162651        2.3110107785        0.6917415599
 C          3.3959963332        1.1953313299        0.2949956021
 C          2.8136484049       -0.1340233757        0.2397078157
 C          1.4711125861       -0.3578690261        0.5633577306
 C         -1.4672191508       -0.9509841879        0.4141428121
 C         -2.8075964071       -1.1133165036        0.7417859230
 N         -3.7655072694       -0.2389738519        0.2107206724
 C         -3.6898675582        1.1386681278        0.2176320935
 C         -2.7310105337        1.9691270438        0.7805561263
 C         -2.9102987442        3.3341383367        0.6652350619
 C         -4.0197366424        3.8694492951        0.0143487781
 C         -4.9904290994        3.0491953983       -0.5247049598
 C         -4.8320832733        1.6734054058       -0.4217921064
 C         -5.6279638583        0.5528917927       -0.8375738396
 C         -6.8329931438        0.4366097575       -1.5180608670
 C         -7.3231418529       -0.8260120738       -1.7846857438
 C         -6.6197657533       -1.9641787143       -1.3958998102
 C         -5.4191495213       -1.8742496117       -0.7181501992
 C         -4.9336674840       -0.6078302981       -0.4249535740
 C         -3.1921324594       -2.1433842874        1.5955637628
 H         -2.5335012763       -3.8019607245        2.7660943398
 H         -0.1592847435       -3.5070590240        2.1923911199
 H          1.3125840379       -3.7115881370        0.2837684939
 H          3.6307609991       -3.3860684260       -0.3136615673
 H          5.3736769010       -3.0926460660       -1.0503442528
 H          7.6651684004       -2.7452482961       -1.7521361226
 H          8.6542560700       -0.4755836475       -1.6793120059
 H          7.3323504285        1.3999930736       -0.9071875345
 H          6.3519632291        2.8289835135       -0.1013703894
 H          5.0054445818        4.7140228192        0.6038452431
 H          2.5993464713        4.4020152211        1.1039697705
 H          1.6001397964        2.2052460232        0.9315816239
 H          0.8362834777        0.4695956152        0.8336315171
 H         -1.1809175918       -0.1715222035       -0.2758853534
 H         -1.8799580673        1.5632075549        1.3062885269
 H         -2.1756986221        4.0016692589        1.0910907410
 H         -4.1214926423        4.9419697074       -0.0589271595
 H         -5.8591650452        3.4640309799       -1.0132061852
 H         -7.3702569653        1.3186886826       -1.8324312713
 H         -8.2598775489       -0.9387035082       -2.3098055535
 H         -7.0196493007       -2.9388795587       -1.6336336273
 H         -4.8722443022       -2.7620341211       -0.4387153857
 H         -4.2307462874       -2.2525126603        1.8682234839
  60
  -91.4206235872000       0.209031205506092      !
 C         -2.2675599354       -3.2741161884        1.6345456205
 C         -0.9313960899       -3.0837454931        1.3338624040
 C         -0.5197507179       -1.9523472179        0.6317247440
 C          0.8994612245       -1.7278798252        0.3258449122
 C          1.7389987082       -2.7848017563       -0.0351411029
 C          3.0689592773       -2.5563531768       -0.2828121871
 C          3.6351929083       -1.2762112104       -0.1942224487
 C          5.0528883699       -1.0502865220       -0.4011340289
 C          5.9323721817       -2.1076773391       -0.6744586813
 C          7.2817712575       -1.9056683615       -0.8365225602
 C          7.8027413009       -0.6231391391       -0.7221113778
 C          6.9618695102        0.4316040713       -0.4589635333
 C          5.5800280831        0.2558465125       -0.3008177036
 C          4.6948219054        1.3784093080       -0.0444842416
 C          5.1705776155        2.6969645574       -0.0156511654
 C          4.3370506574        3.7648505717        0.2156740566
 C          2.9808898775        3.5464346398        0.4200020488
 C          2.4874666923        2.2641820915        0.3923681380
 C          3.3173940267        1.1565327001        0.1689620169
 C          2.7873178052       -0.1949023854        0.1280834374
 C          1.4399320886       -0.4571819959        0.3962610695
 C         -1.4776147206       -1.0272169669        0.2306110835
 C         -2.8179321294       -1.2098890486        0.5469331825
 N         -3.7577628684       -0.2440433671        0.1626405398
 C         -4.9524013949       -0.4795110110       -0.4864165557
 C         -5.4862929898       -1.6729139374       -0.9514814825
 C         -6.7065341043       -1.6254026546       -1.5975957630
 C         -7.3824531912       -0.4221998910       -1.7892356220
 C         -6.8446705894        0.7713613632       -1.3514598051
 C         -5.6191686653        0.7494363359       -0.6987866472
 C         -4.7780458886        1.7714718105       -0.1421183917
 C         -4.8952838345        3.1507491410       -0.0306148965
 C         -3.8876936622        3.8520527957        0.6006866005
 C         -2.7818909784        3.1930704710        1.1337265092
 C         -2.6434183758        1.8220322277        1.0359024942
 C         -3.6391887296        1.1140611978        0.3775400764
 C         -3.2149283237       -2.3408893578        1.2543082672
 H         -2.5741590404       -4.1508735842        2.1855684434
 H         -0.1980653432       -3.8036145472        1.6645013530
 H          1.3363192099       -3.7820490608       -0.1323297766
 H          3.6806382447       -3.4009165112       -0.5543167570
 H          5.5588010855       -3.1150533997       -0.7578598963
 H          7.9333612403       -2.7410860080       -1.0455858002
 H          8.8627906544       -0.4544065261       -0.8381208454
 H          7.3971233115        1.4135679834       -0.3694992390
 H          6.2151506630        2.9000894441       -0.1856438342
 H          4.7348407381        4.7687018651        0.2317997429
 H          2.3154302062        4.3790370921        0.5934940653
 H          1.4281807577        2.1295013572        0.5378827129
 H          0.7885405609        0.3457722979        0.6977075726
 H         -1.1881033173       -0.1698788066       -0.3578633735
 H         -4.9622114664       -2.6079836184       -0.8239360716
 H         -7.1448412299       -2.5414343301       -1.9652918666
 H         -8.3357918938       -0.4277392016       -2.2961209789
 H         -7.3602352864        1.7057498235       -1.5143100528
 H         -5.7612637041        3.6591288083       -0.4267855908
 H         -3.9582041401        4.9253128972        0.6955957161
 H         -2.0187962864        3.7664734148        1.6395448825
 H         -1.7957881706        1.3174179355        1.4746754978
 H         -4.2539311777       -2.4728112607        1.5149955403
  60
  -91.4204491674000       0.173801425863273      !
 C         -2.1324117685       -2.3912266138        2.8004283617
 C         -0.8249899898       -2.3478948095        2.3526738144
 C         -0.4719309715       -1.5320197650        1.2795109687
 C          0.9203907986       -1.4781892083        0.8117070843
 C          1.6909691543       -2.6408536297        0.7297944812
 C          2.9981493924       -2.5750437470        0.3193832800
 C          3.6095487823       -1.3620719725       -0.0297827201
 C          5.0073179119       -1.2942942526       -0.4118492108
 C          5.8209155518       -2.4363315662       -0.4269199357
 C          7.1535744622       -2.3738694578       -0.7557154683
 C          7.7246238972       -1.1496627744       -1.0783021185
 C          6.9482039285       -0.0157161595       -1.0765103984
 C          5.5838556338       -0.0524306527       -0.7561186247
 C          4.7664366108        1.1478041186       -0.7709229705
 C          5.2879538580        2.3847852729       -1.1753366966
 C          4.5220999770        3.5257521223       -1.1912269165
 C          3.1905136556        3.4644284734       -0.8020643633
 C          2.6518726393        2.2625442837       -0.4093715517
 C          3.4112579807        1.0845999968       -0.3806970966
 C          2.8308031514       -0.1856662960        0.0186052779
 C          1.5024613606       -0.2780833358        0.4492406390
 C         -1.4552790488       -0.7611781644        0.6682517139
 C         -2.7707059232       -0.8119984949        1.1121607695
 N         -3.7552238107       -0.0383561762        0.4809211572
 C         -4.6481018348        0.8014778649        1.1147575084
 C         -4.7517801978        1.1285576936        2.4593786257
 C         -5.7302092204        2.0308764479        2.8301637521
 C         -6.5843058332        2.6050872884        1.8909314697
 C         -6.4712730281        2.3009477894        0.5491219214
 C         -5.4950340883        1.3968528820        0.1514677381
 C         -5.0884730458        0.8781056240       -1.1242526430
 C         -5.5442073899        1.0681921083       -2.4222009794
 C         -4.9274746973        0.3794796824       -3.4472837407
 C         -3.8774950681       -0.4995094119       -3.1897338937
 C         -3.4063657878       -0.7057052337       -1.9073554953
 C         -4.0086484990       -0.0005010061       -0.8750113680
 C         -3.1105553217       -1.6333892598        2.1834804130
 H         -2.3945257239       -3.0263093374        3.6336384625
 H         -0.0660500301       -2.9331270421        2.8496628687
 H          1.2501826508       -3.5956350931        0.9758793353
 H          3.5550720359       -3.4962630719        0.2704938773
 H          5.4089591470       -3.3986956067       -0.1715033551
 H          7.7539892104       -3.2715662351       -0.7559566137
 H          8.7733601270       -1.0875206895       -1.3277646535
 H          7.4215759343        0.9199197332       -1.3246650206
 H          6.3145158117        2.4620681048       -1.4935251498
 H          4.9538406531        4.4634208671       -1.5082742377
 H          2.5784966457        4.3540938482       -0.8126896324
 H          1.6125621299        2.2456264311       -0.1259927151
 H          0.9012800414        0.6116022729        0.5361222405
 H         -1.2022289561       -0.1220695398       -0.1643062372
 H         -4.0839947123        0.7014043002        3.1923732213
 H         -5.8329713917        2.2996143588        3.8712035667
 H         -7.3382966922        3.3038736188        2.2214545498
 H         -7.1228731027        2.7575561362       -0.1805403640
 H         -6.3677392653        1.7378466633       -2.6193305920
 H         -5.2651917544        0.5140358496       -4.4640563898
 H         -3.4237611737       -1.0349633182       -4.0106489641
 H         -2.6034665516       -1.4018449037       -1.7166835862
 H         -4.1367586005       -1.6818749557        2.5144897221
  60
  -91.4202958144000       0.147766904607880      !
 C         -2.2501609100       -3.6364992510        0.3740772312
 C         -0.9057665469       -3.3354892425        0.2588276169
 C         -0.4935301397       -2.0265102320        0.0145425947
 C          0.9327244770       -1.7010822363       -0.1251518653
 C          1.7961576948       -2.5619790189       -0.8080280467
 C          3.1287595239       -2.2570513603       -0.9214096025
 C          3.6740449922       -1.0859209659       -0.3756869463
 C          5.0941132902       -0.7990146155       -0.4469411020
 C          5.9961953722       -1.6964476700       -1.0360983509
 C          7.3478647884       -1.4510959634       -1.0668600786
 C          7.8483516127       -0.2894942402       -0.4933951444
 C          6.9849378896        0.6102679988        0.0842764894
 C          5.6003697667        0.3933434113        0.1143528011
 C          4.6910943581        1.3614801871        0.7015620722
 C          5.1450197544        2.6008807440        1.1741324663
 C          4.2901619151        3.5248565032        1.7256716413
 C          2.9346408181        3.2376668487        1.8174226645
 C          2.4620354323        2.0334769092        1.3532655613
 C          3.3127650196        1.0712502050        0.7916139636
 C          2.8029099005       -0.1881455791        0.2783012231
 C          1.4524417187       -0.5330047499        0.4007713712
 C         -1.4566228437       -1.0298353432       -0.0991946919
 C         -2.8086843568       -1.3339612472        0.0040397970
 N         -3.7636923632       -0.3175425609       -0.1343999434
 C         -3.8082275488        0.6130704566       -1.1532175174
 C         -2.9921783480        0.7459742436       -2.2680303416
 C         -3.2747065979        1.7651303998       -3.1570636550
 C         -4.3472119120        2.6313180421       -2.9552011947
 C         -5.1784039525        2.4880902126       -1.8624405280
 C         -4.9147753436        1.4708858347       -0.9545518264
 C         -5.5627045514        1.0290380516        0.2481237238
 C         -6.6738840863        1.4733490334        0.9525651304
 C         -7.0254789105        0.8179922940        2.1155247678
 C         -6.2742953245       -0.2567060406        2.5868185785
 C         -5.1643169135       -0.7161669687        1.9043066165
 C         -4.8213990307       -0.0789223690        0.7199621003
 C         -3.2069386242       -2.6470514120        0.2376995976
 H         -2.5588039453       -4.6542297191        0.5625201770
 H         -0.1678089843       -4.1144677861        0.3770673544
 H          1.4093136379       -3.4632762029       -1.2600530634
 H          3.7585947121       -2.9508684449       -1.4536044014
 H          5.6392349419       -2.6130836406       -1.4758882829
 H          8.0170616998       -2.1625760927       -1.5274648498
 H          8.9102339928       -0.0938151573       -0.4996758793
 H          7.4035115244        1.4979480700        0.5282808690
 H          6.1887170798        2.8588631406        1.1013668587
 H          4.6707818284        4.4714924861        2.0793421947
 H          2.2528940841        3.9589037430        2.2432356662
 H          1.4026979373        1.8477147831        1.4221558231
 H          0.7811272639        0.1103880999        0.9443601626
 H         -1.1589798064       -0.0084481381       -0.2812457293
 H         -2.1699366611        0.0694932664       -2.4460102309
 H         -2.6510189351        1.8906906143       -4.0298076812
 H         -4.5320184865        3.4179190345       -3.6713353468
 H         -6.0195280234        3.1482787514       -1.7138382314
 H         -7.2456558092        2.3167234802        0.5955257500
 H         -7.8883207550        1.1447738211        2.6763978526
 H         -6.5642419027       -0.7397549327        3.5083628176
 H         -4.5784294399       -1.5374114990        2.2887542305
 H         -4.2577712453       -2.8864450737        0.2954680656
  60
  -91.4202815939000       0.145559946264726      !
 C         -2.1364575008       -2.5056147323        2.7286330690
 C         -0.8274093147       -2.4424788033        2.2887108743
 C         -0.4729452075       -1.5940473094        1.2408635484
 C          0.9189172191       -1.5233791906        0.7750227692
 C          1.7129154977       -2.6725254298        0.7164761791
 C          3.0275145250       -2.5869480414        0.3337166698
 C          3.6190959704       -1.3682212941       -0.0282784289
 C          5.0329613499       -1.2629872987       -0.3342661534
 C          5.8900934789       -2.3682478229       -0.2381104383
 C          7.2423506842       -2.2576784224       -0.4569959308
 C          7.7895857430       -1.0196785027       -0.7689030391
 C          6.9694540622        0.0775488047       -0.8815775003
 C          5.5840771783       -0.0125307316       -0.6892564590
 C          4.7165781943        1.1400932834       -0.8544732978
 C          5.1994304050        2.3552595280       -1.3595355129
 C          4.3796876027        3.4447667155       -1.5330416519
 C          3.0318167147        3.3491310595       -1.2123272627
 C          2.5308672040        2.1656418673       -0.7247301590
 C          3.3470777851        1.0432429093       -0.5288751663
 C          2.8054106467       -0.2152351898       -0.0479553386
 C          1.4793270394       -0.3209529215        0.3847534388
 C         -1.4576478094       -0.8053318620        0.6547905341
 C         -2.7735643132       -0.8692254302        1.0959145740
 N         -3.7525705398       -0.0632818893        0.4984726556
 C         -4.6460791025        0.7459077692        1.1711972471
 C         -4.7676086358        0.9899827162        2.5319777525
 C         -5.7428352639        1.8776408752        2.9440761677
 C         -6.5762719576        2.5192841443        2.0303362537
 C         -6.4433787042        2.3004667591        0.6739006805
 C         -5.4700046547        1.4124335367        0.2350806272
 C         -5.0463600256        0.9743900347       -1.0650091745
 C         -5.4742097782        1.2599790775       -2.3548707121
 C         -4.8454230972        0.6362575048       -3.4136767105
 C         -3.8129864770       -0.2740156517       -3.1976419785
 C         -3.3701649663       -0.5751434729       -1.9239126607
 C         -3.9815451120        0.0672695931       -0.8563565017
 C         -3.1154265081       -1.7303281662        2.1348529272
 H         -2.3994634287       -3.1688259307        3.5394041863
 H         -0.0690601445       -3.0386194095        2.7731364162
 H          1.2876623051       -3.6328169359        0.9680359513
 H          3.6062747496       -3.4959460016        0.3160316902
 H          5.4971413163       -3.3369286675        0.0237715400
 H          7.8771126627       -3.1273130128       -0.3739678430
 H          8.8539127037       -0.9182515108       -0.9208428014
 H          7.4225361833        1.0275922991       -1.1131126549
 H          6.2356665854        2.4509865488       -1.6398727866
 H          4.7803972222        4.3666056383       -1.9276923818
 H          2.3767473554        4.1954761484       -1.3567418687
 H          1.4761147713        2.1131370016       -0.5092958097
 H          0.8678571784        0.5633540645        0.4542084637
 H         -1.2062461648       -0.1378417332       -0.1552203491
 H         -4.1148678814        0.5127201368        3.2472293178
 H         -5.8589733879        2.0814275199        3.9983427537
 H         -7.3283381770        3.2039859253        2.3929082525
 H         -7.0773466918        2.8104058870       -0.0356599423
 H         -6.2847749027        1.9535492367       -2.5203964482
 H         -5.1603952898        0.8465497834       -4.4248606806
 H         -3.3501082437       -0.7583362883       -4.0447945946
 H         -2.5822582095       -1.2964629084       -1.7680283686
 H         -4.1425229870       -1.7955689165        2.4599364122
  60
  -91.4199565766000       0.103198712101060      !
 C         -2.1359836090       -2.5399975311        2.6921070118
 C         -0.8270952344       -2.4716148290        2.2525770055
 C         -0.4726965708       -1.6124678096        1.2133505292
 C          0.9202365919       -1.5357514027        0.7517505342
 C          1.7194130695       -2.6817371480        0.6951845419
 C          3.0380729352       -2.5889402576        0.3282997875
 C          3.6274626962       -1.3658823796       -0.0219139416
 C          5.0467383281       -1.2483858490       -0.2955279517
 C          5.9190353474       -2.3331365006       -0.1289840281
 C          7.2747211991       -2.2070370736       -0.3164382125
 C          7.8091544640       -0.9736374176       -0.6670215145
 C          6.9745794309        0.1042047639       -0.8439848763
 C          5.5867441879       -0.0028354632       -0.6821177402
 C          4.7063081580        1.1311872482       -0.8980381701
 C          5.1766382075        2.3291430818       -1.4529263912
 C          4.3480167584        3.4067298748       -1.6569483975
 C          3.0049294205        3.3159644271       -1.3147858450
 C          2.5149632036        2.1459434562       -0.7851765180
 C          3.3388367812        1.0338825636       -0.5641363782
 C          2.8053031967       -0.2194901906       -0.0611499862
 C          1.4769965032       -0.3310519560        0.3628864515
 C         -1.4578552325       -0.8174321003        0.6361729518
 C         -2.7729617505       -0.8843364440        1.0789474443
 N         -3.7521113984       -0.0673720564        0.4966487874
 C         -4.6376962880        0.7360120535        1.1867180200
 C         -4.7483820934        0.9617015560        2.5515669517
 C         -5.7173742679        1.8469531312        2.9829684300
 C         -6.5550234957        2.5040608038        2.0841778971
 C         -6.4326955674        2.3036004827        0.7239077443
 C         -5.4657463991        1.4182783445        0.2657874456
 C         -5.0531579857        0.9961833275       -1.0431008021
 C         -5.4896936641        1.3001212770       -2.3258167790
 C         -4.8711397584        0.6881413959       -3.3974397142
 C         -3.8399213371       -0.2279823202       -3.2012515578
 C         -3.3885131735       -0.5473104922       -1.9349705509
 C         -3.9901448410        0.0825179900       -0.8544627889
 C         -3.1148315369       -1.7575257063        2.1078316493
 H         -2.3988714891       -3.2131682163        3.4946778004
 H         -0.0687641683       -3.0726087306        2.7309991692
 H          1.2951783971       -3.6451293157        0.9361903617
 H          3.6214250748       -3.4951309272        0.3092044785
 H          5.5352982775       -3.2951458655        0.1697233590
 H          7.9221081306       -3.0602751230       -0.1776022750
 H          8.8753413595       -0.8598337820       -0.7950436249
 H          7.4171105495        1.0538646422       -1.0971529696
 H          6.2087289408        2.4179761232       -1.7506612326
 H          4.7382227927        4.3156687702       -2.0902033493
 H          2.3443655966        4.1548822958       -1.4767767860
 H          1.4627657916        2.0951924070       -0.5568662445
 H          0.8604850874        0.5504288433        0.4238231745
 H         -1.2077163192       -0.1424013149       -0.1679505503
 H         -4.0920554662        0.4723699273        3.2552849865
 H         -5.8252367576        2.0363803089        4.0407574638
 H         -7.3021115802        3.1861128042        2.4616073265
 H         -7.0702083788        2.8252800533        0.0261827800
 H         -6.2991612373        1.9984436700       -2.4760757505
 H         -5.1930773074        0.9127253458       -4.4033469460
 H         -3.3849936614       -0.7023885245       -4.0582896864
 H         -2.6011218603       -1.2723915688       -1.7943494788
 H         -4.1417291482       -1.8250177753        2.4331284258
  60
  -91.4174412149000       7.205997013764467E-003 !
 C         -2.2583800220       -3.6335498720        0.4049694813
 C         -0.9133527855       -3.3205988769        0.4473213192
 C         -0.4895532328       -2.0003656908        0.2973066872
 C          0.9427792874       -1.6902917224        0.1765983630
 C          1.7748217521       -2.5866192106       -0.5031241146
 C          3.1023081133       -2.3010969775       -0.6871917130
 C          3.6775296455       -1.1120627346       -0.2185836584
 C          5.0810418718       -0.8171242901       -0.4302207001
 C          5.9530867640       -1.7636124068       -0.9868077852
 C          7.2773917336       -1.4800869877       -1.2182090102
 C          7.7777715731       -0.2259062062       -0.8923760747
 C          6.9488017836        0.7117185532       -0.3241425822
 C          5.5950069091        0.4474580043       -0.0727468117
 C          4.7298559205        1.4237406705        0.5654807639
 C          5.1981853126        2.6992874014        0.9105296288
 C          4.4045008279        3.6132547461        1.5608372242
 C          3.1016871488        3.2719892043        1.8998054075
 C          2.6110499630        2.0350776767        1.5555029809
 C          3.3915625812        1.0919233159        0.8724518190
 C          2.8461243892       -0.1865238627        0.4479272051
 C          1.4963923085       -0.5101442424        0.6383821848
 C         -1.4494525653       -0.9995972520        0.1807076406
 C         -2.8028718503       -1.3142539082        0.1109594076
 N         -3.7554693147       -0.3061015060       -0.0807841257
 C         -3.6481836519        0.7523552007       -0.9664215994
 C         -2.6284808536        1.0831715343       -1.8491158583
 C         -2.7843731924        2.2136724237       -2.6285606017
 C         -3.9333609703        2.9972268927       -2.5576000048
 C         -4.9727135265        2.6484406330       -1.7195048327
 C         -4.8355280637        1.5191691236       -0.9234734637
 C         -5.7048948243        0.8766817641        0.0202918590
 C         -6.9925489382        1.1508266725        0.4614605085
 C         -7.5590154259        0.3194736552        1.4061544125
 C         -6.8412853199       -0.7516546080        1.9328030206
 C         -5.5571053596       -1.0401559146        1.5114809313
 C         -4.9986203577       -0.2398623965        0.5234730480
 C         -3.2033403746       -2.6458112513        0.1994593631
 H         -2.5744439488       -4.6614222160        0.5052056625
 H         -0.1864333448       -4.1032512282        0.6014028597
 H          1.3623842234       -3.4949638159       -0.9154626862
 H          3.6983647316       -3.0130294733       -1.2339707130
 H          5.5951054033       -2.7491097326       -1.2361763563
 H          7.9247338293       -2.2296104720       -1.6487444913
 H          8.8158913610        0.0089376494       -1.0749570325
 H          7.3727397087        1.6680539327       -0.0653707200
 H          6.2062476488        2.9900100379        0.6646416576
 H          4.7949520846        4.5885093014        1.8110394455
 H          2.4743298362        3.9764148050        2.4255193707
 H          1.5952202114        1.8016982365        1.8298673838
 H          0.8517304635        0.1736691310        1.1650719610
 H         -1.1432607729        0.0324113413        0.1193070332
 H         -1.7419399804        0.4761034831       -1.9452363110
 H         -1.9948358544        2.4931846868       -3.3104760318
 H         -4.0124695579        3.8780516810       -3.1769144371
 H         -5.8770256686        3.2365992860       -1.6799194365
 H         -7.5352221909        1.9971004426        0.0681614116
 H         -8.5646252331        0.5045018888        1.7529570429
 H         -7.2985217505       -1.3724295135        2.6892005346
 H         -5.0090359171       -1.8587223830        1.9518474230
 H         -4.2447825263       -2.9029905565        0.0879508026
