86
 energy: -145.612661842145 gnorm: 0.000066978776 xtb: 6.7.1 (edcfbbe)
O           -0.00269924386134        4.10677056084361        1.04705688344026
S           -0.00237533295765        2.89699392976591        1.86641476962125
O           -0.00281527186890        3.15711505449725        3.29726090722599
C           -1.38199254124845        1.88923225805095        1.44789217703787
C           -2.58250786265150        2.11515396481819        2.12993983620367
C           -3.70930508355552        1.39904254034806        1.81483532724063
C           -3.64126880400339        0.44199130047487        0.79309741255280
N           -4.79661962364612       -0.29432000424434        0.43167683949428
C           -4.87026412657126       -1.65405843981953        0.68755799985125
C           -3.82611109703166       -2.36101675749521        1.28510048658934
C           -3.94063857501406       -3.71601491313351        1.52463930223732
C           -5.10399097668503       -4.39872909543900        1.18489389418203
C           -6.16038331266129       -3.71372614669646        0.61346635368773
C           -6.05580254639646       -2.35235859381462        0.36700633413877
O           -7.14029644920290       -1.72700400276676       -0.17356985708872
C           -7.05177790620935       -0.39016400375227       -0.42684583487646
C           -8.15792354244850        0.23173693741119       -0.98515651304400
C           -8.11716704553759        1.58121759050089       -1.28652989127130
C           -6.95641316714758        2.30963243698353       -1.04262508999873
C           -5.85076892995877        1.70212860808363       -0.48316116922488
C           -5.87872355332181        0.34698608452965       -0.14627295708233
C           -2.43030831300973        0.20241584163123        0.13208849655739
C           -1.28290314502899        0.90444339349366        0.45759217745898
C           -0.00077653657665        0.60019204789383       -0.28881061447308
C           -0.00080120136013        1.33458923599195       -1.62695374896420
C           -0.00180921078015        2.69179579151035       -1.85792299124196
C           -0.00164993146126        3.13740775519969       -3.17582578205914
C           -0.00041593131764        2.23761298553962       -4.23246665721465
C            0.00056572457951        0.87210082744986       -4.00241765806860
C            0.00030580038327        0.41786377742779       -2.69158660392442
C            0.00080211890008       -0.92941093980645       -2.15217448434034
C            0.00157222023115       -2.16843915146221       -2.77827808046079
C            0.00160627352676       -3.30967939065023       -1.99331755205384
C            0.00089178571347       -3.22362119698356       -0.60818005489546
C            0.00013969817555       -1.98593404799990        0.02494832956705
C            0.00008651908605       -0.84771073840702       -0.75106283160093
C            1.28077394074801        0.90571003663549        0.45809051515740
C            2.42912357153549        0.20509167611966        0.13280502939519
C            3.63962155620968        0.44615281567682        0.79409618339554
N            4.79645121901475       -0.28753354315257        0.43204782840341
C            4.87335330336077       -1.64735252048022        0.68688076613422
C            3.83088581393445       -2.35714461047053        1.28389253771898
C            3.94857758238943       -3.71211482351869        1.52242132168545
C            5.11341217754268       -4.39177151773821        1.18218650829156
C            6.16817459835658       -3.70383357541092        0.61113602437332
C            6.06032454678873       -2.34258860693248        0.36567978300783
O            7.14336739618920       -1.71438406548103       -0.17476056636696
C            7.05159372923637       -0.37748415477519       -0.42708311002317
C            8.15612286217668        0.24726224372784       -0.98532878266569
C            8.11224997366292        1.59692066367280       -1.28568846454440
C            6.95009215282158        2.32246259381099       -1.04079223869929
C            5.84596139997472        1.71197270326960       -0.48143463863499
C            5.87709385471343        0.35668067966632       -0.14564717690025
C            3.70607645238994        1.40289893360819        1.81622167677802
C            2.57830704560764        2.11753134598448        2.13118918551132
C            1.37836627362394        1.89046731183002        1.44854364944208
H           -2.58147562160748        2.86610053664417        2.90445930096145
H           -4.63946009612909        1.56641720622224        2.33599445067209
H           -2.92735515636868       -1.83453773837780        1.56113431945600
H           -3.12081405264186       -4.24338084811608        1.98576645021317
H           -5.18965951902118       -5.45696259763535        1.37272562108860
H           -7.08173196858551       -4.21021418204083        0.35366199024964
H           -9.03645050081205       -0.36326243962484       -1.17792626867247
H           -8.98065252153420        2.06125329420488       -1.71803969049433
H           -6.91397599322813        3.35806056778677       -1.29292468990146
H           -4.95068697421091        2.26878622794499       -0.30523143179607
H           -2.40746598697014       -0.54233334091667       -0.64875091120361
H           -0.00270044771898        3.39497625260104       -1.03781290853073
H           -0.00246611428240        4.19915627567868       -3.37519729141692
H           -0.00025583916601        2.60914483206490       -5.24724229569177
H            0.00148746595708        0.17477468669419       -4.82699753542221
H            0.00211096007192       -2.24051651678278       -3.85553160163352
H            0.00209383843081       -4.28148712729062       -2.46529762357726
H            0.00088972674837       -4.12692977052120       -0.01724781503955
H           -0.00043926930749       -1.91549310780194        1.10319190003336
H            2.40739923400215       -0.53950412626702       -0.64821358719016
H            2.93093348022706       -1.83293955183205        1.56036744655764
H            3.12994227328877       -4.24171537736087        1.98311478292477
H            5.20165500291678       -5.44993499560568        1.36923307355749
H            7.09066328647114       -4.19795082614169        0.35084403776573
H            9.03590208228925       -0.34562838425544       -1.17886593721044
H            8.97450269353900        2.07917053681064       -1.71718513459444
H            6.90515694501199        3.37101309537621       -1.29015617733851
H            4.94469015056059        2.27649498696781       -0.30277503410713
H            4.63587827257171        1.57133931697063        2.33766637557537
H            2.57610401660272        2.86827321948214        2.90590364153815
