86
 energy: -145.612699600460 gnorm: 0.000033293400 xtb: 6.7.1 (edcfbbe)
O           -0.00279090290936        4.12272594031101        0.90407125647102
S           -0.00053624160354        2.94769342172710        1.77251519752897
O            0.00129216072963        3.26565163072202        3.19157251797011
C           -1.38134437207099        1.92510357381620        1.39572639076551
C           -2.58342652904407        2.18425324026640        2.06301385615727
C           -3.71356735226386        1.46454457939390        1.76850769899069
C           -3.64691003291776        0.46949430556291        0.78378009666727
N           -4.80760267732371       -0.26641006392752        0.43863719447862
C           -4.90192107894964       -1.61399566667303        0.74602838700955
C           -3.87370401609904       -2.30977892938983        1.38291550955368
C           -4.00853771831315       -3.65284912513982        1.67373574719589
C           -5.17723002796180       -4.33331523540380        1.34805032619710
C           -6.21809843097120       -3.65819455942850        0.73749245050263
C           -6.09245410368202       -2.30935831788131        0.43795991862966
O           -7.16147449327558       -1.69220961894367       -0.14177231675780
C           -7.05137836745786       -0.36801646522803       -0.44814884297936
C           -8.14010601585311        0.24409133785853       -1.04988252963985
C           -8.07659773219956        1.57932846418622       -1.40593945029521
C           -6.91074735613738        2.30280243255574       -1.17228448970713
C           -5.82221206723184        1.70495288991430       -0.57034925729864
C           -5.87320341344168        0.36514835722848       -0.17943827855823
C           -2.43383646291513        0.19512623545050        0.14066339356070
C           -1.28368545083134        0.90231035374114        0.44500034512873
C           -0.00161919854184        0.56306010921144       -0.28567636131004
C           -0.00439617180288        1.23346266744575       -1.65674928655193
C           -0.00569741943791        2.57852850274068       -1.94999409237291
C           -0.00836923362002        2.96263761089874       -3.28709246886718
C           -0.00977807870302        2.01449678866447       -4.30067571036653
C           -0.00847412032298        0.66103631091733       -4.00777012649650
C           -0.00573578442906        0.26779730929949       -2.67727777675862
C           -0.00375864131405       -1.05265712424089       -2.07496983085283
C           -0.00400496043499       -2.32021852716628       -2.64122919495297
C           -0.00157839811481       -3.42284088375396       -1.80277954567274
C            0.00109078156934       -3.27123680471593       -0.42325953682790
C            0.00127977774812       -2.00475325341760        0.15025333616875
C           -0.00114325259857       -0.90495578022339       -0.67908122338686
C            1.28204677995784        0.90444426413570        0.44114165114454
C            2.43248065876398        0.19925395070207        0.13329731880452
C            3.64707194830901        0.47573225150788        0.77267871975562
N            4.80812897042670       -0.25776944932597        0.42369360675212
C            4.90593687443372       -1.60541911424997        0.72972635216666
C            3.88070554554356       -2.30388426325215        1.36851030927632
C            4.01903045537001       -3.64691071323589        1.65787338649961
C            5.18840078239969       -4.32466481799912        1.32888724288187
C            6.22641860796945       -3.64686576399087        0.71647178494929
C            6.09721919606661       -2.29805636807702        0.41828604047802
O            7.16356451453304       -1.67822684001827       -0.16345972785659
C            7.04982098950242       -0.35417296753258       -0.46901823633991
C            8.13566709043762        0.26053618407839       -1.07330922366843
C            8.06832468954416        1.59575394269895       -1.42870875432316
C            6.90147737493307        2.31660453786314       -1.19178524768226
C            5.81581569193927        1.71617417054113       -0.58727179294088
C            5.87071464334560        0.37632189978168       -0.19697856156361
C            3.71497752610975        1.47086437986745        1.75727048452452
C            2.58448796510651        2.18856765413068        2.05527682866424
C            1.38081723998960        1.92738804846690        1.39161921274696
H           -2.58154838160540        2.96463531205451        2.80784956642655
H           -4.64563173167004        1.65844043433912        2.27690206153376
H           -2.97172281731267       -1.78365341471613        1.64910610663591
H           -3.20052283538075       -4.17209103063491        2.16403644482523
H           -5.27936315938243       -5.38189600789648        1.57724430185058
H           -7.14294028177837       -4.15288178769097        0.48685262589445
H           -9.02309134937989       -0.34733291000276       -1.23300047047544
H           -8.92617911281056        2.05183682821043       -1.87199795857125
H           -6.85022779915220        3.33928480448168       -1.46501341158203
H           -4.91776555395786        2.26723064840620       -0.40087342620342
H           -2.41142648953152       -0.57964412076063       -0.61040411280579
H           -0.00468071216211        3.31864462862153       -1.16288879072735
H           -0.00938856319523        4.01400114829696       -3.53553327755923
H           -0.01188248092089        2.33856844375090       -5.33162416134578
H           -0.00957221134789       -0.07330869048171       -4.79960058137810
H           -0.00602503507503       -2.44390111275403       -3.71378320890814
H           -0.00172974490044       -4.41599124458850       -2.22801848586124
H            0.00299222363982       -4.14529035589590        0.21020524138142
H            0.00329676750961       -1.88285501722288        1.22392807278855
H            2.40913348519115       -0.57553006144671       -0.61771586655391
H            2.97828087172920       -1.77987070503662        1.63733937060525
H            3.21325459783781       -4.16826913911399        2.14961271979102
H            5.29325617333769       -5.37322134816525        1.55696000221877
H            7.15171521048576       -4.13938926817621        0.46325997127367
H            9.01945618581630       -0.32890439915368       -1.25893026237594
H            8.91561904982895        2.07031199078246       -1.89683397371771
H            6.83796134284984        3.35304597095422       -1.48402842933841
H            4.91058589900024        2.27642325859016       -0.41528733109871
H            4.64824981796360        1.66640758529407        2.26281505692573
H            2.58354126892463        2.96892213262131        2.80014747472491
