  86
       -145.64627045
 O          0.0005965708        4.1906111253        0.7283421414
 S          0.0052295368        3.0894234108        1.6657895480
 O          0.0116796833        3.4424683238        3.0644196801
 C         -1.3975315285        2.0420286872        1.3202019356
 C         -2.5981979797        2.3455904344        1.9398587395
 C         -3.7281044704        1.6033494251        1.6702091197
 C         -3.6555502379        0.5674268287        0.7365900093
 N         -4.7915719106       -0.1978409769        0.4311469675
 C         -4.7833974550       -1.5896597291        0.5938285968
 C         -3.6856162919       -2.2804413278        1.0923389260
 C         -3.7157222627       -3.6589304248        1.2366684800
 C         -4.8479602128       -4.3724770591        0.9008442379
 C         -5.9669602051       -3.6952462614        0.4416295309
 C         -5.9425485969       -2.3197597045        0.2981709487
 O         -7.1045189435       -1.7241920471       -0.1206802562
 C         -7.0909674232       -0.3644766784       -0.3006990828
 C         -8.2565807413        0.2154894856       -0.7673205550
 C         -8.3097723021        1.5785856513       -1.0145084570
 C         -7.1817837750        2.3489057427       -0.8160905478
 C         -6.0121117169        1.7721557978       -0.3452810305
 C         -5.9550628245        0.4156922763       -0.0504031830
 C         -2.4443128684        0.2819317476        0.1172200027
 C         -1.2869418744        0.9909510061        0.4252029915
 C         -0.0020365772        0.5929753221       -0.2624083289
 C         -0.0115628329        1.1360297612       -1.6855325699
 C         -0.0089251789        2.4528020090       -2.0873948450
 C         -0.0225552257        2.7175880600       -3.4517464998
 C         -0.0396215188        1.6859472506       -4.3782681171
 C         -0.0417745824        0.3608829753       -3.9710423621
 C         -0.0267119495        0.0857694581       -2.6137429486
 C         -0.0226966082       -1.1792038049       -1.8919558606
 C         -0.0318728394       -2.4907270741       -2.3380669480
 C         -0.0226971522       -3.5113817431       -1.3998650875
 C         -0.0048324177       -3.2329111741       -0.0420256707
 C          0.0032697690       -1.9206259685        0.4121661500
 C         -0.0054851966       -0.9041105120       -0.5179180222
 C          1.2879441072        0.9906374081        0.4146324948
 C          2.4425338084        0.2796397571        0.0997365849
 C          3.6587331674        0.5677304324        0.7079580599
 N          4.7930758138       -0.1985937104        0.3980028839
 C          4.7968557692       -1.5863139013        0.5913288280
 C          3.7012612655       -2.2772669072        1.0939188826
 C          3.7448997296       -3.6515422799        1.2714541622
 C          4.8883440800       -4.3603653015        0.9650901872
 C          6.0039325229       -3.6821730639        0.4994802641
 C          5.9657418755       -2.3109991480        0.3220518329
 O          7.1246285768       -1.7136387713       -0.1033655920
 C          7.0999789806       -0.3582216154       -0.3112589066
 C          8.2634599984        0.2239545817       -0.7802596014
 C          8.3054235216        1.5825790102       -1.0533141787
 C          7.1689923808        2.3459944207       -0.8779461246
 C          6.0013279494        1.7670951873       -0.4049898364
 C          5.9551670883        0.4159622973       -0.0849577609
 C          3.7396402767        1.6081893500        1.6358721738
 C          2.6118967834        2.3503095654        1.9139709866
 C          1.4058041765        2.0435583583        1.3065069503
 H         -2.6139541661        3.1614226277        2.6446945327
 H         -4.6611700163        1.8163035739        2.1680121781
 H         -2.7993155825       -1.7405008680        1.3820320616
 H         -2.8431404625       -4.1648199053        1.6194973314
 H         -4.8751170606       -5.4453192699        1.0055613609
 H         -6.8780974330       -4.2159273240        0.1945480479
 H         -9.1103002328       -0.4210238837       -0.9357218279
 H         -9.2242978400        2.0240483915       -1.3721628840
 H         -7.1976196411        3.4066906876       -1.0280301517
 H         -5.1336555233        2.3837043952       -0.2151847105
 H         -2.4103263967       -0.5076314857       -0.6178444865
 H          0.0026027822        3.2531387759       -1.3628930374
 H         -0.0204997402        3.7418478767       -3.7925726503
 H         -0.0514133305        1.9184440784       -5.4328322402
 H         -0.0553494039       -0.4383562076       -4.6967158754
 H         -0.0457682866       -2.7147854187       -3.3938608129
 H         -0.0292464504       -4.5389315390       -1.7308345651
 H          0.0027965329       -4.0444976942        0.6694841432
 H          0.0156659564       -1.6998813741        1.4703577442
 H          2.4020327795       -0.5121871938       -0.6326046456
 H          2.8061055756       -1.7405051640        1.3611103033
 H          2.8739904229       -4.1578662877        1.6572221830
 H          4.9265653352       -5.4297967822        1.0974441154
 H          6.9231666844       -4.1983096801        0.2739516679
 H          9.1246647738       -0.4070494672       -0.9298093197
 H          9.2181747331        2.0296353578       -1.4132556217
 H          7.1766064296        3.3995565685       -1.1103410826
 H          5.1161039284        2.3722901291       -0.2920172606
 H          4.6776604433        1.8240814503        2.1230474097
 H          2.6334642440        3.1679603110        2.6165470565
