86
 energy: -145.702884530132 gnorm: 0.000054536302 xtb: 6.7.1 (edcfbbe)
O           -0.00003111972626        1.81119123510305        4.46454749527091
S           -0.00001353599928        0.62831491646738        3.63330863767104
O            0.00000362978515       -0.63604967348242        4.34408034146291
C           -1.40697116891723        0.65958072072259        2.54465718817372
C           -2.62226476201340        1.04156070834781        3.08926651325603
C           -3.77007336880204        1.00084308221451        2.32665406889249
C           -3.68807401253934        0.57450635929796        0.99948248948579
N           -4.84852785353622        0.48036636775391        0.21092424391500
C           -5.25471437247515       -0.75125193345845       -0.32066966612120
C           -4.53396859717043       -1.92438055859118       -0.13131230719847
C           -4.97102672584997       -3.12470849544464       -0.67114596199915
C           -6.14355130819276       -3.17870769348624       -1.39772092501999
C           -6.89336494494628       -2.02429340330923       -1.56692296379541
C           -6.46149546959828       -0.82504716896908       -1.02945410324847
O           -7.28285198677805        0.26267979525118       -1.21050664379107
C           -6.85272909615038        1.47009948915667       -0.71461832899808
C           -7.66047126262464        2.56774479858525       -0.95143628051482
C           -7.27655779509315        3.82660979652293       -0.51350871363177
C           -6.07073529571481        3.97973377336710        0.14130845917225
C           -5.25903623896165        2.88147603149121        0.38233795000429
C           -5.64709810210639        1.60770803315356       -0.01515557700071
C           -2.45519441425747        0.22846688667378        0.45825254220925
C           -1.29045688311242        0.26258386171897        1.22192720708621
C            0.00000141520025       -0.19851014154875        0.58585486436950
C           -0.00000293509274        0.11198907202804       -0.90234393957334
C           -0.00001824201295        1.34901987213283       -1.51055892985415
C           -0.00001695731788        1.40299096798625       -2.89904239598984
C           -0.00000234547771        0.23967120802594       -3.65449443634248
C            0.00001339422370       -1.00604769350716       -3.04574561614974
C            0.00001316868589       -1.06690517982602       -1.66150399314590
C            0.00002812913307       -2.20342612664850       -0.75196414641015
C            0.00004777036336       -3.56634212848031       -0.99903634876769
C            0.00006191951330       -4.43562324534092        0.08078426512296
C            0.00005737819355       -3.95629872547411        1.38229017349581
C            0.00003802973427       -2.58999324038686        1.64047042883167
C            0.00002284779408       -1.72731458958138        0.56650082293839
C            1.29044586737891        0.26261828381087        1.22193071958369
C            2.45518675036818        0.22852923722219        0.45826009767300
C            3.68805580892024        0.57460080407303        0.99949350068702
N            4.84851515305245        0.48048640409886        0.21094015880673
C            5.25473544996412       -0.75112408623904       -0.32064607364628
C            4.53401620976932       -1.92426939803435       -0.13129086809143
C            4.97110687489946       -3.12458835577945       -0.67111804362999
C            6.14363933768829       -3.17856198280455       -1.39768216304236
C            6.89342673883505       -2.02413039247359       -1.56688194547143
C            6.46152321371932       -0.82489239306278       -1.02942212156480
O            7.28285252560893        0.26285490591445       -1.21047625578840
C            6.85269399125828        1.47026687894630       -0.71460003380417
C            7.66040671658479        2.56793273396641       -0.95142320799901
C            7.27645677273387        3.82679053292785       -0.51350685422974
C            6.07062780968718        3.97988624801833        0.14130505233223
C            5.25895830744357        2.88160784527215        0.38233978305832
C            5.64705643801678        1.60784769205194       -0.01514330077137
C            3.77003978404029        1.00094337598569        2.32666413525341
C            2.62222778163988        1.04163265178686        3.08927294245066
C            1.40694578225926        0.65961997577882        2.54466054238463
H           -2.63972400823330        1.35267716618541        4.12215114192666
H           -4.72386917181776        1.27640449260198        2.74896268267818
H           -3.62953264443196       -1.90931317521982        0.45512631065392
H           -4.38414602078136       -4.01580802151210       -0.50990846611943
H           -6.48789793526989       -4.10846049520324       -1.82224853726029
H           -7.82641738565686       -2.03286943922022       -2.10814131958514
H           -8.58542531329081        2.41534598192282       -1.48501815676986
H           -7.91501811843182        4.67593510607304       -0.69863526225740
H           -5.74659369373220        4.95591168709859        0.46774678464738
H           -4.31193897210789        3.01787161789218        0.87981783596254
H           -2.40787470301243       -0.07440230715579       -0.57636069688334
H           -0.00002824397218        2.25451972303307       -0.92193676341079
H           -0.00002855821341        2.36239974086525       -3.39442816660795
H           -0.00000276128567        0.30590169505126       -4.73250062230261
H            0.00002439288313       -1.90814418387564       -3.63798006602089
H            0.00005258374260       -3.94339322295018       -2.01022670766084
H            0.00007824535216       -5.50179706131018       -0.09253269672352
H            0.00007041986217       -4.65056703609935        2.20946920583535
H            0.00003425454291       -2.21724180428850        2.65478864533090
H            2.40787836770876       -0.07434429724911       -0.57635231628093
H            3.62957559057230       -1.90922184173094        0.45514115690644
H            4.38424915806909       -4.01570257668328       -0.50987775484442
H            6.48801487777382       -4.10830913974741       -1.82219858816054
H            7.82648427629347       -2.03268613847098       -2.10809193056661
H            8.58536786936140        2.41555511651546       -1.48499881278185
H            7.91489477706066        4.67613196739614       -0.69863652159928
H            5.74645787454496        4.95605760571002        0.46773495204599
H            4.31185499472582        3.01798102939399        0.87981418642842
H            4.72382719227269        1.27653034080260        2.74897499291146
H            2.63967545344265        1.35275153025983        4.12215701247316
