  56
  -84.6779376100000       0.327538528887937      !
 C          0.8515066367        2.9356700308       -1.3033282741
 C          0.3606574006        0.4443908340        0.1309525158
 C         -1.6201388075        1.3059863494        2.2859887912
 C          1.1761908515       -0.3588589488        1.1130064201
 C          2.7077669794        0.5612234017       -0.3952344688
 C          3.8780036884       -0.4246738997       -0.5212399726
 C          3.3278844300       -2.2245972878        0.6177757487
 C          2.0085358663       -2.6502792927        1.0784837605
 C          0.9591907659       -1.7373327380        1.0545099680
 N         -0.3152450951       -2.2163094239        0.7621767403
 C         -1.1776785448       -1.5178773811       -0.0603171962
 C         -2.1165382298       -2.1311049934       -0.7919409985
 C         -3.2441825168       -1.3860640716       -1.4035862904
 C         -3.9844652122        0.5836031933       -0.7870731687
 C         -2.8450817245        1.2815794576       -0.0192815115
 C         -1.0830718301       -0.0230049033        0.0147573603
 O          2.0232791720        3.6141192784       -1.0641085874
 S          0.2220433037        2.3279601759        0.3759050982
 O          1.3239137718        2.8278689173        1.2312983420
 C          1.3689607587        0.1563090542       -0.9635440957
 C          2.5686491153        0.1940505425        1.1072457791
 C          3.7417531797       -0.7892979853        0.9642980984
 C          3.4603262699       -1.8323356344       -0.9653405022
 C          2.2894004691       -1.8874359113       -1.8583194750
 C          1.2758792126       -0.9709752160       -1.7902857359
 C         -2.1347884813        0.4832095185        1.1044018233
 C         -2.9649124542       -0.6315036977        1.6744572700
 C         -3.9902445735       -1.1897223067        1.0485410243
 C         -4.3071721261       -0.8584480082       -0.3592134236
 C         -2.9706731585        0.0673166321       -1.8235219175
 C         -1.8417193964        0.7733222295       -1.0637527781
 H          2.1452568066        3.5288928066       -0.0815428528
 H          0.0726536452        3.6009049626       -1.6924101767
 H          1.0035989916        2.0705491863       -1.9592766640
 H         -1.5801737898        2.3685787383        2.0684140740
 H         -2.2868770386        1.1793478145        3.1375271800
 H         -0.6286243704        0.9717899431        2.5830876544
 H          2.9910039842        1.5838329260       -0.6320330470
 H          4.7927079743       -0.0293747948       -0.9559525907
 H          4.0942597288       -2.9610610535        0.8585249559
 H          1.7818272963       -3.7072563256        1.0654108626
 H         -0.3878203971       -3.2227293059        0.6957188562
 H         -2.1735005423       -3.2105328178       -0.8008517230
 H         -3.7147319573       -1.9740798657       -2.1916587665
 H         -4.8323477215        1.2110948738       -1.0476648483
 H         -2.9898583789        2.3395353103        0.1815778167
 H          2.7202356467        0.9919250453        1.8301764044
 H          4.5503696174       -0.6773472711        1.6819377979
 H          4.2847089294       -2.4103439812       -1.3833838314
 H          2.1860054522       -2.7497694332       -2.4998149731
 H          0.3482835615       -1.1575430606       -2.3172549735
 H         -2.7102869315       -0.9412987464        2.6778187768
 H         -4.5774949434       -1.9591995069        1.5278002759
 H         -5.3196883647       -1.1615286844       -0.6246454668
 H         -3.0415958141        0.2875620559       -2.8856929241
 H         -1.2317044393        1.4433043395       -1.6611326674
  56
  -84.6779366400000       0.327202499780876      !
 C          0.8494804080        2.9290134537       -1.3139290616
 C          0.3600272651        0.4420803649        0.1259360040
 C         -1.6063086581        1.2972060583        2.2880483038
 C          1.1705354635       -0.3617949936        1.1118783923
 C          2.7090867422        0.5622216193       -0.3863924540
 C          3.8826537788       -0.4204939627       -0.5063687778
 C          3.3282812333       -2.2234683614        0.6255519389
 C          2.0063167266       -2.6521487588        1.0754643803
 C          0.9557651476       -1.7407114573        1.0472718426
 N         -0.3154390194       -2.2210387638        0.7455025841
 C         -1.1807577068       -1.5188309430       -0.0701080001
 C         -2.1244291825       -2.1281228681       -0.7990408828
 C         -3.2544150171       -1.3794025397       -1.4019338565
 C         -3.9883815408        0.5894999363       -0.7748529969
 C         -2.8438147668        1.2830783306       -0.0108682602
 C         -1.0839048799       -0.0244588514        0.0097035602
 O          2.0181008152        3.6130810588       -1.0757426440
 S          0.2199695418        2.3263060548        0.3673597666
 O          1.3211631789        2.8306654314        1.2212856756
 C          1.3744417412        0.1545190534       -0.9630197189
 C          2.5621091579        0.1930961264        1.1149470642
 C          3.7375356262       -0.7881469981        0.9776227412
 C          3.4712398592       -1.8280948753       -0.9562587387
 C          2.3062681624       -1.8844483395       -1.8567144642
 C          1.2889381715       -0.9716672098       -1.7916807099
 C         -2.1292389582        0.4796031963        1.1065033334
 C         -2.9582525812       -0.6354581276        1.6773603129
 C         -3.9876865683       -1.1899642684        1.0549388792
 C         -4.3110752886       -0.8535640223       -0.3500974476
 C         -2.9810012111        0.0749374525       -1.8183500965
 C         -1.8467362103        0.7764702213       -1.0622950087
 H          2.1395845654        3.5306554298       -0.0926599105
 H          0.0688789411        3.5892163767       -1.7080343260
 H          1.0061477219        2.0606440006       -1.9648999407
 H         -0.6132277863        0.9605595313        2.5777364161
 H         -1.5664754177        2.3607185174        2.0744543364
 H         -2.2679177857        1.1680446347        3.1433641625
 H          2.9907098899        1.5858688317       -0.6205618777
 H          4.7992058769       -0.0218854895       -0.9339686504
 H          4.0940071625       -2.9593021763        0.8701847427
 H          1.7810922043       -3.7093898560        1.0568152422
 H         -0.3868850580       -3.2271883825        0.6751356893
 H         -2.1831441481       -3.2074296230       -0.8112854599
 H         -3.7301981646       -1.9640455464       -2.1893932300
 H         -4.8367034241        1.2191448936       -1.0287557440
 H         -2.9855452058        2.3405791855        0.1942697963
 H          2.7082434122        0.9906170561        1.8394181381
 H          4.5414576347       -0.6765270420        1.7005523264
 H          4.2998068348       -2.4035735756       -1.3694395447
 H          2.2095288389       -2.7454062146       -2.5010295842
 H          0.3646436907       -1.1602257401       -2.3238068443
 H         -2.6985924772       -0.9493142648        2.6781532088
 H         -4.5730876361       -1.9606759979        1.5344141663
 H         -5.3253129808       -1.1542284758       -0.6113764310
 H         -3.0572639376        0.2989279747       -2.8793491815
 H         -1.2388209768        1.4469519676       -1.6611845144
  56
  -84.6779259400000       0.323518584271823      !
 C          0.8478818116        2.9265778189       -1.3214628424
 C          0.3595615318        0.4423292545        0.1233048638
 C         -1.5992911298        1.2870299370        2.2933926352
 C          1.1675831177       -0.3615808931        1.1112935237
 C          2.7094559937        0.5617807168       -0.3834942245
 C          3.8835896136       -0.4206990617       -0.4996028490
 C          3.3273656179       -2.2228700668        0.6329559719
 C          2.0042700434       -2.6517253040        1.0788954399
 C          0.9533148507       -1.7405934716        1.0445722120
 N         -0.3156355740       -2.2213778730        0.7357849908
 C         -1.1812197344       -1.5172038790       -0.0777886323
 C         -2.1253489798       -2.1241401235       -0.8081036084
 C         -3.2571464526       -1.3730445514       -1.4049443175
 C         -3.9912096080        0.5918122319       -0.7655753036
 C         -2.8450904623        1.2834006650       -0.0017198438
 C         -1.0846294359       -0.0232859455        0.0073992933
 O          2.0167840788        3.6111003490       -1.0856703560
 S          0.2200522327        2.3273019394        0.3615713856
 O          1.3214950524        2.8343108561        1.2134058848
 C          1.3761175180        0.1535663282       -0.9632185160
 C          2.5589259010        0.1939264045        1.1178624486
 C          3.7350579080       -0.7869495227        0.9843905960
 C          3.4737932788       -1.8288667060       -0.9492145475
 C          2.3108170158       -1.8864306861       -1.8520716600
 C          1.2931994123       -0.9736032188       -1.7907947221
 C         -2.1264558803        0.4753908852        1.1096852667
 C         -2.9530273442       -0.6424346132        1.6783888553
 C         -3.9825850781       -1.1962587807        1.0554603198
 C         -4.3106526170       -0.8539223297       -0.3472105794
 C         -2.9863614530        0.0837489572       -1.8147418328
 C         -1.8507387826        0.7825452156       -1.0585932238
 H          2.1383386732        3.5308951275       -0.1022380479
 H          0.0668647176        3.5862042786       -1.7158384171
 H          1.0040022573        2.0566436957       -1.9705288061
 H         -2.2679900289        1.1668940075        3.1450334755
 H         -0.6122082346        0.9350573348        2.5871050482
 H         -1.5427452199        2.3501043531        2.0794074208
 H          2.9913182495        1.5852287278       -0.6182155364
 H          4.8011038655       -0.0222900316       -0.9253628045
 H          4.0928517736       -2.9580589834        0.8801951132
 H          1.7792300059       -3.7090595198        1.0596552622
 H         -0.3865801069       -3.2273953955        0.6629923773
 H         -2.1838288638       -3.2034043935       -0.8246101817
 H         -3.7346641182       -1.9539951976       -2.1941221448
 H         -4.8410351123        1.2217780341       -1.0135597861
 H         -2.9878463921        2.3397388498        0.2086853369
 H          2.7027646134        0.9921445568        1.8420481034
 H          4.5371540471       -0.6741617953        1.7092026532
 H          4.3035082607       -2.4045416668       -1.3597838484
 H          2.2156714391       -2.7481832039       -2.4955784663
 H          0.3706190279       -1.1632999007       -2.3255377416
 H         -2.6929734686       -0.9581985896        2.6785396518
 H         -4.5667785396       -1.9682749744        1.5344150185
 H         -5.3255379970       -1.1544754618       -0.6062327503
 H         -3.0664224212        0.3129672903       -2.8743293653
 H         -1.2449057452        1.4562195667       -1.6558872200
  56
  -84.6743366600000       7.250706984143714E-003 !
 C          0.9666292762        3.1410623927       -1.0359378957
 C          0.4162912003        0.4921065539        0.1829621213
 C         -1.5739844740        1.2200021225        2.3725207646
 C          1.1961845837       -0.3747252543        1.1373789256
 C          2.7832749628        0.5957983062       -0.2733562463
 C          3.9417910909       -0.4038626848       -0.4046355299
 C          3.3447549666       -2.2407316296        0.6494468663
 C          2.0055859948       -2.6715321180        1.0491647841
 C          0.9675373099       -1.7451870841        1.0078694564
 N         -0.2932309755       -2.1960395733        0.6392865847
 C         -1.1374965816       -1.4410583421       -0.1483821800
 C         -2.0725328426       -2.0041456064       -0.9246752734
 C         -3.1944455673       -1.2170265893       -1.4907978955
 C         -3.9320480209        0.7084901306       -0.7443482311
 C         -2.7942608164        1.3513845495        0.0714755830
 C         -1.0321745686        0.0457925310        0.0198579812
 O          0.7731453331        2.4461299955       -2.2098429050
 S          0.2950072820        2.3657198615        0.5606148103
 O          1.3252756528        2.7690617719        1.5306721661
 C          1.4520457645        0.2532066764       -0.9106599475
 C          2.5902978270        0.1638602834        1.2045940204
 C          3.7598314705       -0.8229577067        1.0622729109
 C          3.5205531250       -1.7897995005       -0.9084916828
 C          2.3637907621       -1.8024768990       -1.8233116151
 C          1.3714034221       -0.8715152256       -1.7633718392
 C         -2.0868261483        0.4783946860        1.1388957284
 C         -2.9204069265       -0.6692087324        1.6325718705
 C         -3.9462165514       -1.1821493457        0.9693000381
 C         -4.2583371018       -0.7583498132       -0.4148732358
 C         -2.9159927812        0.2605529028       -1.8098482969
 C         -1.7888599954        0.9147458448       -1.0027319335
 H          1.1004772570        1.5140376410       -2.0282053076
 H          2.0193161019        3.3491437614       -0.8205127938
 H          0.4252110452        4.0876009187       -1.1066546016
 H         -0.5876878025        0.8591926921        2.6528441005
 H         -1.5226477308        2.2923767770        2.2193301835
 H         -2.2481029743        1.0469424989        3.2102029458
 H          3.0981401989        1.6235192638       -0.4346302116
 H          4.8746235737       -0.0085655919       -0.7993628671
 H          4.0968114601       -2.9929322962        0.8850347665
 H          1.7694786637       -3.7243618152        0.9812083530
 H         -0.3751093938       -3.1955848806        0.5181639793
 H         -2.1341863962       -3.0814108458       -0.9984140722
 H         -3.6653918658       -1.7493749712       -2.3170226203
 H         -4.7789488876        1.3521632213       -0.9654851853
 H         -2.9388667465        2.3922723089        0.3451601363
 H          2.7161979006        0.9351851202        1.9593571031
 H          4.5481910043       -0.7438935241        1.8057875062
 H          4.3475277024       -2.3579371185       -1.3339231831
 H          2.2612565815       -2.6487667438       -2.4868110703
 H          0.4610886065       -1.0219439879       -2.3299451162
 H         -2.6708612227       -1.0436722980        2.6150773904
 H         -4.5379883979       -1.9789936761        1.3963696707
 H         -5.2702073388       -1.0421969260       -0.7020609383
 H         -2.9848058405        0.5510214256       -2.8549419373
 H         -1.1886052615        1.6239262956       -1.5597132513
  56
  -84.6743361500000       7.246794982938530E-003 !
 C          0.9616748366        3.1336619155       -1.0513481703
 C          0.4154010392        0.4906285685        0.1775626782
 C         -1.5590393557        1.2082965762        2.3756911993
 C          1.1894505306       -0.3769370416        1.1365519134
 C          2.7839426865        0.5969721258       -0.2627603934
 C          3.9464313388       -0.3989789340       -0.3868712142
 C          3.3447376842       -2.2391457781        0.6585247673
 C          2.0026331222       -2.6727083256        1.0451432004
 C          0.9637418457       -1.7478270454        0.9993475584
 N         -0.2930780755       -2.1990801349        0.6196192384
 C         -1.1402986390       -1.4399167149       -0.1604843588
 C         -2.0798290232       -1.9986581139       -0.9346829308
 C         -3.2048989424       -1.2079584288       -1.4895390827
 C         -3.9371075481        0.7142969003       -0.7288080964
 C         -2.7940044502        1.3526701014        0.0830828102
 C         -1.0333576132        0.0458367428        0.0145889863
 O          0.7689357102        2.4325390304       -2.2218230368
 S          0.2925974216        2.3652335724        0.5502844607
 O          1.3241049239        2.7737280185        1.5167357923
 C          1.4578385900        0.2509519245       -0.9093470956
 C          2.5823201250        0.1629924219        1.2135651406
 C          3.7542605685       -0.8216879459        1.0776924767
 C          3.5328623470       -1.7847689427       -0.8973056573
 C          2.3837241042       -1.7984875861       -1.8213599509
 C          1.3863160972       -0.8721562821       -1.7643221280
 C         -2.0810622300        0.4738915314        1.1418180776
 C         -2.9123777058       -0.6754442016        1.6352349498
 C         -3.9421840671       -1.1850026350        0.9756071309
 C         -4.2620340196       -0.7541391623       -0.4046323218
 C         -2.9277685813        0.2711303466       -1.8027725234
 C         -1.7951639338        0.9205134781       -0.9992700788
 H          1.1008506790        1.5030114078       -2.0362508732
 H          2.0144505800        3.3447892637       -0.8382233147
 H          0.4187030683        4.0789488671       -1.1267626109
 H         -1.4953018206        2.2803299214        2.2245164118
 H         -2.2344504046        1.0409522519        3.2134597131
 H         -0.5765255555        0.8354119054        2.6536280222
 H          3.0960643866        1.6260182668       -0.4205732793
 H          4.8811590521        0.0001378267       -0.7732523987
 H          4.0957370367       -2.9908226230        0.8989562850
 H          1.7681819001       -3.7255011002        0.9691727843
 H         -0.3736619138       -3.1980766685        0.4936045089
 H         -2.1425184787       -3.0755092049       -1.0135260696
 H         -3.6814798386       -1.7358884985       -2.3154524479
 H         -4.7853141648        1.3592917511       -0.9413604274
 H         -2.9363214963        2.3922579415        0.3628829291
 H          2.7027264577        0.9339483751        1.9695956042
 H          4.5369699634       -0.7430345938        1.8272730419
 H          4.3647781876       -2.3501783430       -1.3166803157
 H          2.2890400117       -2.6432372140       -2.4879635633
 H          0.4791178365       -1.0264330078       -2.3347863807
 H         -2.6568093905       -1.0548857909        2.6143387612
 H         -4.5315844976       -1.9839493189        1.4018142931
 H         -5.2758117651       -1.0357980332       -0.6873700962
 H         -3.0027886018        0.5669967202       -2.8459408554
 H         -1.1973679793        1.6315503479       -1.5565964289
  56
  -84.6743356400000       7.242885092281152E-003 !
 C          0.9614777687        3.1360599767       -1.0490548070
 C          0.4155857530        0.4909739651        0.1769512119
 C         -1.5573327803        1.2078429191        2.3752306508
 C          1.1900310865       -0.3762526819        1.1357072546
 C          2.7839731601        0.5967192478       -0.2648540625
 C          3.9454891641       -0.4003834139       -0.3890141488
 C          3.3442302020       -2.2391148984        0.6592605846
 C          2.0024954119       -2.6721700653        1.0479920727
 C          0.9637758363       -1.7469925456        1.0002454642
 N         -0.2929056012       -2.1986395581        0.6205445749
 C         -1.1396740833       -1.4401523719       -0.1605561950
 C         -2.0789154383       -1.9990731877       -0.9350023927
 C         -3.2039703010       -1.2084955748       -1.4901343640
 C         -3.9364944520        0.7137794700       -0.7293297618
 C         -2.7933739402        1.3521767964        0.0826168041
 C         -1.0329107193        0.0455994217        0.0140665636
 O          0.7704798026        2.4357110942       -2.2202728294
 S          0.2922361102        2.3654654231        0.5511671219
 O          1.3229987378        2.7737537252        1.5187095830
 C          1.4571940894        0.2516244287       -0.9106188359
 C          2.5829135582        0.1638237980        1.2118690122
 C          3.7545442577       -0.8211917157        1.0763074397
 C          3.5303836789       -1.7866304479       -0.8970164175
 C          2.3799675706       -1.8006525048       -1.8197542609
 C          1.3843024946       -0.8726533115       -1.7644133082
 C         -2.0805137947        0.4734187078        1.1415112825
 C         -2.9120690633       -0.6757550667        1.6347030368
 C         -3.9416039994       -1.1855177802        0.9747899406
 C         -4.2613304905       -0.7546824304       -0.4054563106
 C         -2.9272994124        0.2706361645       -1.8033881922
 C         -1.7947274990        0.9199953193       -0.9998677786
 H          1.1021244721        1.5061634864       -2.0348890059
 H          2.0136709104        3.3477096774       -0.8342089443
 H          0.4177013905        4.0809561524       -1.1239856505
 H         -2.2243498255        1.0305924926        3.2170076585
 H         -0.5697170733        0.8443014749        2.6451802947
 H         -1.5055797475        2.2805634210        2.2276984904
 H          3.0970124806        1.6253483852       -0.4236876744
 H          4.8801417351       -0.0026647512       -0.7769744041
 H          4.0954522581       -2.9905396221        0.8997796508
 H          1.7679797513       -3.7251031656        0.9746622701
 H         -0.3733291283       -3.1977743597        0.4954794446
 H         -2.1415529331       -3.0759541806       -1.0135903520
 H         -3.6803354923       -1.7365170898       -2.3160744904
 H         -4.7846954689        1.3588035917       -0.9417503609
 H         -2.9357034907        2.3917612624        0.3622946513
 H          2.7034449529        0.9352674141        1.9673859508
 H          4.5378843964       -0.7417069535        1.8251110642
 H          4.3612586310       -2.3530421211       -1.3171464854
 H          2.2838790245       -2.6464852375       -2.4848523449
 H          0.4772478504       -1.0256859029       -2.3354367592
 H         -2.6564820976       -1.0557492733        2.6135552307
 H         -4.5308642782       -1.9846370981        1.4007786305
 H         -5.2751170699       -1.0362849397       -0.6881945839
 H         -3.0025047013        0.5664984087       -2.8465535799
 H         -1.1968531181        1.6309439948       -1.5572452838
