74
 energy: -114.570394436299 gnorm: 0.000057718631 xtb: 6.7.1 (edcfbbe)
C            9.53757015100549       -1.14441543094021        1.21793591166333
C            9.26055562196482        0.36057928484667        1.25454365791349
C            9.04205862763436        0.83965409285527        2.69228731639635
C            8.07087539740285        0.71011680804494        0.39489460681695
C            8.20927409014418        1.59446084071134       -0.68004242874667
C            7.13787642772696        1.93672544513787       -1.47414543180599
C            5.88179978112619        1.39333722987385       -1.20730256296220
O            4.84554807745277        1.75772400872098       -2.00570424598799
C            3.64076230873666        1.25120329019511       -1.74786049289259
C            3.33708000672345        0.38482539357835       -0.75362348696923
C            1.95853453061304       -0.10024130303210       -0.58311215119477
C            1.39987314783831       -0.20899502744524        0.68830640823618
C            0.10279624042593       -0.65813630954288        0.84924832280532
C           -0.65784459472618       -1.00332682185045       -0.26059279358040
N           -2.00021161986122       -1.45342491062490       -0.09997482641138
C           -2.24994805218678       -2.81752941570001       -0.07521504783651
C           -1.18242288203114       -3.71608835184584       -0.16238531850740
C           -1.39967906846225       -5.07809021495353       -0.14859071675766
C           -2.68935482666513       -5.56854808785749       -0.04601611168079
C           -3.74500495500995       -4.68069660349658        0.05233748711284
C           -3.55500348478279       -3.30523369946330        0.04294281581102
C           -4.75220983607087       -2.38289375069348        0.17331434262690
C           -5.44702135747404       -2.67500622154006        1.51708407325791
C           -5.71677549018190       -2.65610098609110       -0.99628985319288
C           -4.35268580676992       -0.91712718162681        0.14022512956892
C           -5.34364319824640        0.04354188437040        0.24172288957505
C           -5.02467591106504        1.39327071438992        0.20673724237047
C           -3.67924924116370        1.77194413983063        0.06359109344428
C           -2.66986400427516        0.84233539458839       -0.04104808475596
C           -3.00829940842433       -0.51516161292395        0.00310877339003
O           -3.53413496857396        3.13013357924184        0.04126887937142
C           -4.79498505061289        3.64404581716419        0.17019730971871
C           -5.13458322343421        4.98313861417131        0.19580912828300
C           -6.47773650077784        5.29558235319519        0.33018684622758
C           -7.44585957968073        4.30133858187702        0.43613797191424
C           -7.10418168120663        2.96225921652220        0.41158771485096
C           -5.76371559693778        2.62457204115315        0.27714882094942
C           -0.10650481662528       -0.90499548088552       -1.53264487516049
C            1.19154669224490       -0.46014761364329       -1.69043040571571
C            4.39612745567138       -0.07534099414893        0.15145056692743
O            4.21726030922826       -0.87697886445757        1.06383038114829
C            5.71453955171908        0.50356277478436       -0.14036242138884
C            6.82200706223370        0.17736493016293        0.64680759326080
H            8.70680694595501       -1.70225832127773        1.64245080772612
H            9.68808344106688       -1.47840024524966        0.19342064910500
H           10.43290351944571       -1.37282983953729        1.79165403486703
H           10.13733459927393        0.87869054461124        0.85136553411911
H            8.86015127762802        1.91224091685436        2.71215485744693
H            9.92177896685434        0.62624772067533        3.29512152834289
H            8.18784543894948        0.33831113830332        3.14050012606776
H            9.17869713547610        2.02072974217182       -0.89195708301139
H            7.24415303586766        2.62084266077912       -2.30120542258797
H            2.89402978849412        1.63317464370150       -2.43136708935698
H            1.98462343796337        0.05967204555997        1.55396004261150
H           -0.32910598070892       -0.73843873793066        1.83586182665588
H           -0.17365372420969       -3.33969961682051       -0.23672545178621
H           -0.55936211460494       -5.75336633669049       -0.21686228495314
H           -2.87313147262130       -6.63242892037422       -0.03656492518664
H           -4.74464008147826       -5.07827662775049        0.14070477346421
H           -6.31835886225705       -2.04013936629055        1.65020060801428
H           -4.75737431350467       -2.48847107436039        2.33866162098531
H           -5.76881599463566       -3.71127355024489        1.56877905835459
H           -5.22702617296588       -2.42751862331647       -1.94130494867587
H           -6.60948235822707       -2.04263247921075       -0.91548669595918
H           -6.02114097843083       -3.69868170910170       -1.01137645093563
H           -6.37726237424140       -0.24416017732344        0.34731613070282
H           -1.64749761462944        1.16170514080371       -0.15435100650472
H           -4.37818101917690        5.74789117922868        0.11312882498880
H           -6.77753642157785        6.33263401247100        0.35285207858046
H           -8.48291612186248        4.58508606068393        0.53901593731561
H           -7.85757268474085        2.19373472797946        0.49403305243678
H           -0.69960082045879       -1.18380321882049       -2.39119656299586
H            1.62077491162040       -0.40612279068529       -2.67950211979960
H            6.65404052858437       -0.51025825622407        1.46207115615185
