74
 energy: -114.481234743502 gnorm: 0.000061471931 xtb: 6.7.1 (edcfbbe)
C            9.61897609232296       -1.29318244347361        0.47325948447240
C            9.35067156553102        0.12729510878931        0.97723920345279
C            9.21170018735814        0.14626398563606        2.50166008378777
C            8.12104617728557        0.70432622401710        0.31978794822681
C            8.20787115346798        1.83645639521541       -0.47677423380762
C            7.08187196396721        2.38004672176374       -1.08251087231165
C            5.83968295549202        1.78537101376513       -0.89180492935531
O            4.76668272632324        2.35099305893052       -1.49829769176315
C            3.54677568323358        1.77585979802213       -1.31327124306606
C            3.31038085409609        0.64342074617759       -0.55289249592365
C            1.96325365884577        0.11917670567385       -0.43024179466656
C            1.57100562527470       -0.63154688302189        0.69083982917686
C            0.30516132300326       -1.15388175943605        0.79982145466876
C           -0.64034667672086       -0.92439893348261       -0.20480813740729
N           -1.95002672206018       -1.44363974423493       -0.09443949905970
C           -2.13437632068252       -2.81372730238562       -0.12657976589160
C           -1.02846488374423       -3.66563606969469       -0.28767446052755
C           -1.18586073190123       -5.03186746122359       -0.30592871981163
C           -2.45436318845752       -5.58353522362459       -0.18514746012287
C           -3.55134505820716       -4.74925950742980       -0.07647529422005
C           -3.42494903481397       -3.36636777239382       -0.05157480040634
C           -4.66614131153386       -2.50661379609150        0.00807276074768
C           -5.45194453160616       -2.85410448692444        1.28889465469396
C           -5.52220592901765       -2.80840325965745       -1.23887207402205
C           -4.34170294675564       -1.02816623262109        0.03323256379573
C           -5.37932963205195       -0.11952807091060        0.10245453371093
C           -5.11795813678877        1.24945947611433        0.17787386565262
C           -3.77169710334563        1.68937618150004        0.21767361677639
C           -2.72048539499087        0.81646073173661        0.15013025065198
C           -3.00283677766612       -0.56410953414870        0.01801803753442
O           -3.69229419562659        3.04378306313786        0.33556286386075
C           -4.98323501468012        3.49764963539945        0.36565310980549
C           -5.38623969804289        4.81137516168222        0.46955868738868
C           -6.75471885969190        5.05807191853790        0.48068116676947
C           -7.68097969714320        4.02046608694721        0.39077343395192
C           -7.27907954727128        2.70480996245966        0.28807120286488
C           -5.90934797416235        2.43036539042289        0.27302455945573
C           -0.27451070327366       -0.16569036271434       -1.32073689441502
C            0.99818135824563        0.33766424955108       -1.43283945067337
C            4.41862738129410       -0.00325136111699        0.10994886299903
O            4.32429694429857       -1.05250679794996        0.79262097917146
C            5.72416842847336        0.63844254469764       -0.09410379324872
C            6.87172647166798        0.11486652197743        0.49724807549839
H            9.72781253423056       -1.29592440591853       -0.60948737966868
H           10.53296486769986       -1.68314323163886        0.91612429544334
H            8.79762945028776       -1.95534913558053        0.73598154237475
H           10.20712018479714        0.75440261446587        0.70449835740683
H            9.02415766427570        1.15953609869707        2.85144729318656
H           10.12441724086498       -0.21956422579760        2.96713478638707
H            8.38497260373799       -0.48410559461695        2.81986330027940
H            9.16568896825678        2.31108347573098       -0.63348555934287
H            7.14963758959995        3.25832048041319       -1.70539898255810
H            2.77554017445882        2.34065292603109       -1.80771258876160
H            2.28605167327799       -0.79584734648795        1.48157300856668
H            0.02172486877966       -1.71629177660230        1.67723536638352
H           -0.04255492733057       -3.24649278966627       -0.40584423882820
H           -0.32108928999829       -5.66677012551455       -0.42289769112779
H           -2.58715351281569       -6.65420463511948       -0.19515349191969
H           -4.53176105081341       -5.19385367663448       -0.01402249189621
H           -4.85027379050312       -2.62701988502315        2.16673453002248
H           -5.70724743276508       -3.90892068216727        1.30981249968123
H           -6.37132553821006       -2.27998473046856        1.34449726654952
H           -6.43208077628076       -2.21652184320186       -1.23209525345868
H           -5.79711403129268       -3.85801549384580       -1.27250851232493
H           -4.96196609058400       -2.56933237628759       -2.14062596549450
H           -6.40395688119774       -0.45108191524690        0.10836883290702
H           -1.70845194080048        1.17684951910166        0.21225215117053
H           -4.66533497963367        5.61033336586102        0.53940200126863
H           -7.10385445140441        6.07615586513900        0.56050539166185
H           -8.73468870984471        4.25666281080440        0.40288309537152
H           -7.99804585086492        1.90370951425823        0.21862720458654
H           -0.99544103450016       -0.00647819769932       -2.10932866361784
H            1.27414698530434        0.87102586233526       -2.32808665659793
H            6.74857036509657       -0.76909782402308        1.10476962958054
