  94
       -137.47512625
 C         -3.3788125996        1.8783812146       -0.0946961308
 C         -3.9238922851        0.6661660924        0.2169283272
 C         -5.3078220314        0.3214115920        0.1515132634
 C         -6.3018899611        1.1671543413       -0.3759555128
 C         -7.6185661197        0.7838185976       -0.4235472814
 C         -8.0202329082       -0.4675030409        0.0590079214
 N         -9.3590966073       -0.8532747358        0.0111290594
 C         -9.6990996649       -2.1909683297       -0.2185390044
 C        -10.7888913510       -2.7641496809        0.4376582303
 C        -11.1251382010       -4.0832385232        0.2052823705
 C        -10.3814134912       -4.8527412161       -0.6747845756
 C         -9.2964103232       -4.2891327808       -1.3266756221
 C         -8.9559421859       -2.9689395126       -1.1068334843
 C        -10.3709410313        0.0980562275        0.1825098976
 C        -10.2175596382        1.1374772372        1.1004829366
 C        -11.2169752720        2.0771661165        1.2595678429
 C        -12.3837708460        1.9942993402        0.5168614546
 C        -12.5433345397        0.9608160368       -0.3920837227
 C        -11.5470019629        0.0201535119       -0.5641901553
 C         -7.0450536516       -1.3222790698        0.5862263479
 C         -5.7287025124       -0.9366331266        0.6247809845
 C         -2.0035514920        2.2282640654       -0.0567002780
 C         -0.9594409510        1.3234250718        0.2399446797
 C          0.3478859224        1.7167379748        0.2451256372
 C          0.7349471921        3.0454598185       -0.0531154302
 C          2.1091121753        3.4427063533       -0.0729111965
 C          2.5448545986        4.6052370188       -0.7608287701
 C          3.8566778895        4.9651571579       -0.8052361388
 C          4.8718479901        4.1823954142       -0.1897539270
 C          6.2152994084        4.5761698129       -0.2826999926
 C          7.3638374708        3.8468722189        0.0155740030
 C          7.5425068209        2.4471336175        0.0058305218
 C          6.6645256187        1.5563431279       -0.6623102441
 C          6.8736862247        0.2052770450       -0.6497016334
 C          7.9776853680       -0.3478464956        0.0183652072
 N          8.1646588134       -1.7264660032        0.0550491099
 C          7.0565776592       -2.5758822739        0.1403113744
 C          5.9479356950       -2.2140341158        0.9071609694
 C          4.8530829491       -3.0515248049        0.9836557145
 C          4.8450052423       -4.2604065882        0.3061989231
 C          5.9445671422       -4.6258578869       -0.4537443922
 C          7.0425715531       -3.7930873012       -0.5420655056
 C          9.4538929792       -2.2649357308        0.0029254499
 C         10.4329942618       -1.6766565470       -0.7989115681
 C         11.7055769166       -2.2104666244       -0.8449646058
 C         12.0223999624       -3.3360104692       -0.1012774378
 C         11.0530347275       -3.9250922150        0.6948335968
 C          9.7788381178       -3.3964156202        0.7525458972
 C          8.8918445424        0.5220192637        0.6340730760
 C          8.6865548421        1.8748117722        0.6148285457
 C          4.4260411501        3.0581017836        0.5617396839
 C          3.1121470653        2.7066838581        0.6079664485
 C         -0.3130420083        3.9508233433       -0.3446252491
 C         -1.6200009510        3.5586656010       -0.3432964934
 H         -4.0419950722        2.6789238658       -0.3968221437
 H         -3.2721096563       -0.1250241118        0.5626324906
 H         -6.0284512679        2.1316778332       -0.7739578516
 H         -8.3583355439        1.4452533983       -0.8511966148
 H        -11.3636552058       -2.1686499565        1.1318360585
 H        -11.9695139817       -4.5157762438        0.7215179486
 H        -10.6457132536       -5.8841744112       -0.8515086240
 H         -8.7150941682       -4.8799198846       -2.0191741082
 H         -8.1177107686       -2.5273341621       -1.6254503979
 H         -9.3132185124        1.1970726190        1.6880682567
 H        -11.0868463878        2.8758322631        1.9748959605
 H        -13.1632511464        2.7297283674        0.6455407840
 H        -13.4474198427        0.8913470129       -0.9789213517
 H        -11.6682956598       -0.7779135275       -1.2820779407
 H         -7.3401452742       -2.2872747780        0.9725986214
 H         -4.9934206004       -1.6086077505        1.0442168364
 H         -1.1970193363        0.2916269136        0.4513430965
 H          1.1101813193        0.9779824003        0.4428814470
 H          1.8238464270        5.2027952193       -1.2975643249
 H          4.1543554167        5.8456762467       -1.3583404820
 H          6.3769873853        5.6066911188       -0.5827902105
 H          8.2545825080        4.4274978483        0.2287985857
 H          5.8373915942        1.9612938985       -1.2238141927
 H          6.1980707717       -0.4521683994       -1.1780514964
 H          5.9584246524       -1.2777933912        1.4453908793
 H          4.0025908486       -2.7617439706        1.5827940382
 H          3.9878059254       -4.9130851543        0.3698520333
 H          5.9441392047       -5.5637646073       -0.9892628849
 H          7.8931789667       -4.0735603762       -1.1458565332
 H         10.1824311563       -0.8075247111       -1.3891840793
 H         12.4535642935       -1.7490375052       -1.4726097409
 H         13.0176850581       -3.7515152196       -0.1419535331
 H         11.2933721793       -4.7991274119        1.2818642840
 H          9.0274412116       -3.8496220199        1.3824587560
 H          9.7516363116        0.1088425506        1.1418486565
 H          9.3902234301        2.5281549691        1.1106243631
 H          5.1500088038        2.5049402305        1.1410783648
 H          2.8215889987        1.8694078434        1.2248891375
 H         -0.0813686827        4.9864521373       -0.5418769044
 H         -2.3940280885        4.2829677569       -0.5594304898
