94
 energy: -137.477239780665 gnorm: 0.000079701744 xtb: 6.7.1 (edcfbbe)
C           -2.72509512586476        2.10290500334085       -0.20867960601195
C           -3.28931035427530        0.83136576532158        0.02052221778187
C           -4.64808174068451        0.51535684441611        0.02109291079385
C           -5.69397420468441        1.45558819043756       -0.21069233912082
C           -7.00720036913065        1.08539220920686       -0.19024775719622
C           -7.38212225294884       -0.24966485610648        0.04930470199376
N           -8.72085284238570       -0.62374236011856        0.06119863484561
C           -9.10033907865001       -1.87969085684213       -0.42264517923326
C          -10.11888892503621       -2.60138703768949        0.20183382796316
C          -10.48593959170074       -3.84213424717944       -0.28009114397331
C           -9.84517639804199       -4.38522664811811       -1.38251246566197
C           -8.83210125950037       -3.67313089809580       -2.00499774780094
C           -8.46051548135263       -2.42935747653677       -1.53489170089407
C           -9.69076060184064        0.25136775924946        0.55945148664608
C           -9.41139506009733        1.06130967624478        1.66150520664145
C          -10.37095696285678        1.92678761966305        2.14760203050074
C          -11.62013329721515        1.99718849100514        1.55134925319913
C          -11.90310152441659        1.19334837520449        0.45836528873706
C          -10.94931575038526        0.32798809669722       -0.03940794855306
C           -6.36715407456170       -1.19931596309128        0.27585574668150
C           -5.05530631984052       -0.82931755894974        0.26824465014490
C           -1.36928244890163        2.41644320790580       -0.19479956122350
C           -0.32787882919242        1.47633755140132        0.06984435561386
C            0.98077171828792        1.84849177597097        0.08516781936534
C            1.38691029088935        3.17806865908642       -0.18049457709565
C            2.77945921404457        3.54402800711299       -0.17186363719973
C            3.27507443371481        4.60742113984558       -0.94801230567211
C            4.61572232894522        4.90576267351978       -0.97853712472151
C            5.54478628162184        4.15410863956039       -0.24793511936954
C            6.96268699023581        4.43819787580900       -0.34198114581801
C            7.95266358875423        3.53281842065775       -0.25898826128365
C            7.76307887974570        2.08979732985849       -0.22981271304741
C            6.80470733081480        1.47371723394948       -1.04174600822220
C            6.57201510758769        0.12152378866553       -0.96203291770893
C            7.28847958933814       -0.66917221541679       -0.05983401176921
N            6.98345935774951       -2.02675864027275        0.07862575055463
C            5.64624037200898       -2.43595466755623        0.02570233642429
C            4.63828516633518       -1.62790240047339        0.55398666042343
C            3.31903021093799       -2.03063484922188        0.49122866886514
C            2.98096550522888       -3.24280709086164       -0.08809265025092
C            3.97778127834792       -4.05074790696435       -0.60992978373883
C            5.29980664237935       -3.65359668953772       -0.55985839155793
C            8.00250638149937       -2.95890912989966        0.29262780866107
C            9.23815716143238       -2.80780483992401       -0.33735992129410
C           10.24665217811284       -3.72605479278470       -0.12092923428482
C           10.04143078907516       -4.81021618223938        0.71680628435689
C            8.81546206892958       -4.96650479294945        1.34287528728026
C            7.80301935169480       -4.04955980421374        1.13946097687829
C            8.29630804736211       -0.07552084676050        0.70050637293359
C            8.53666834684205        1.27908816031216        0.60231662084615
C            5.04559515193479        3.14640665795443        0.59192303278104
C            3.70967522828069        2.84557019314949        0.62221280488729
C            0.36356330626065        4.11424914611184       -0.46263922170921
C           -0.94886237793166        3.75628380089688       -0.45875184271046
H           -3.39996509933877        2.92117507712311       -0.41963311019962
H           -2.61377785541513        0.00978562622655        0.21255661490266
H           -5.44452891256158        2.48386428896697       -0.41838848980200
H           -7.77962187524581        1.81685081332778       -0.38209395919376
H          -10.61025949225043       -2.18488059210240        1.06897221216839
H          -11.27246842722787       -4.39324151486942        0.21385341145316
H          -10.13353023721609       -5.35662879067277       -1.75402303767104
H           -8.33255213862872       -4.08628481318357       -2.86870903290136
H           -7.67990938282077       -1.86860031687898       -2.02754505121305
H           -8.44253876601726        0.99659475289343        2.13439572402907
H          -10.14482306207787        2.54503093965725        3.00367797635191
H          -12.36807747512350        2.67356874214711        1.93589474491811
H          -12.87210597110825        1.24658139863760       -0.01548423882509
H          -11.16686151699231       -0.28894185623454       -0.89901505961920
H           -6.64453797873423       -2.22401234449030        0.47863960299183
H           -4.29114597525812       -1.56778077599858        0.46419594597104
H           -0.58451609043626        0.44465444702402        0.25494764036984
H            1.73942059423314        1.09941069652609        0.26069866274281
H            2.59666071001705        5.17370319686657       -1.56862942253200
H            4.97132987890381        5.70920953729489       -1.60931964714839
H            7.22292403462575        5.48082069543989       -0.48323027962950
H            8.97893334092355        3.87718670816088       -0.22139244014093
H            6.24525334343257        2.07123887114449       -1.74535631103881
H            5.82544221375368       -0.33895250698943       -1.59242112884014
H            4.89884137760688       -0.68582684367509        1.01373373905175
H            2.54824884945344       -1.39824273564436        0.90703530939523
H            1.94873815383021       -3.55506298023652       -0.13320747430394
H            3.72367739542215       -4.99499586847266       -1.06887146337823
H            6.07322573519657       -4.28057737720929       -0.97896918294155
H            9.39624790196125       -1.96922839004279       -0.99971225614074
H           11.19747483049260       -3.59863375714919       -0.61736347780062
H           10.83097014866575       -5.52771399950739        0.88084925391780
H            8.64846551879349       -5.80513213706902        2.00287484427803
H            6.85225942440961       -4.16764053599772        1.63842688919973
H            8.87395125365632       -0.68104430291269        1.38386528066631
H            9.30339293215206        1.72915542545031        1.21688232505194
H            5.72859694999358        2.61556837261957        1.23852365343322
H            3.35856347917761        2.08192856450211        1.30020338786195
H            0.63064633043105        5.14480535181264       -0.64605528079625
H           -1.71049802868586        4.49841918352538       -0.65572992803615
