94
 energy: -137.545118544172 gnorm: 0.000057511360 xtb: 6.7.1 (edcfbbe)
C           -3.08518426752394        0.85873346071505       -0.09153373139389
C           -4.26179003663696        1.49883008827457       -0.18570448983962
C           -5.57688172087246        0.90427857425886       -0.08735294960569
C           -5.79891745830051       -0.45432372271581        0.16296793266916
C           -7.07284293456883       -0.96878199595154        0.24081564649778
C           -8.18771885373484       -0.14528878740677        0.06655820949922
N           -9.47897071280872       -0.66980936099188        0.13765323806423
C          -10.51725172142482        0.08959987526717        0.69025287302139
C          -11.79955801952033        0.03567166624674        0.14446619011551
C          -12.82270155137777        0.78108842959397        0.69698950512959
C          -12.58573596711209        1.59548760808261        1.79227799504694
C          -11.31287529000689        1.65559017934279        2.33571129589441
C          -10.28488013418955        0.90775936409350        1.79559921708563
C           -9.74105365890784       -1.95735954903405       -0.34585717138709
C           -9.10676172627361       -2.42368711627977       -1.49716214832020
C           -9.36668482944340       -3.69598166661781       -1.96767078107927
C          -10.26511648046240       -4.51871548625873       -1.30810596646832
C          -10.90175476306996       -4.05832714052351       -0.16715199155629
C          -10.64227485793508       -2.79072441449356        0.31623832680480
C           -7.98018375694575        1.21305977837435       -0.18045324732200
C           -6.70263531543632        1.72006273645083       -0.25161625019305
C           -1.76941247253596        1.45289590831721       -0.20001261418777
C           -1.54836538870831        2.81784870971959       -0.40923108451475
C           -0.27115963518354        3.32456793421083       -0.50853413052658
C            0.84472430526445        2.49304261449448       -0.41099993720466
C            2.20300664076789        3.03297782524969       -0.52884530453020
C            3.19029572151438        2.33472274486118       -1.22497396433678
C            4.46908627639369        2.83600277366808       -1.33696420458653
C            4.81279189937102        4.05455291820139       -0.74994062996510
C            6.15087322720921        4.62246044533574       -0.87925691249020
C            7.31451265960710        3.96406589261032       -0.86718647248683
C            7.52922155820398        2.55009406092201       -0.57933041529021
C            6.80180503795751        1.87370110945352        0.40153474493095
C            7.04381743520779        0.54549883012747        0.67526392362269
C            8.02832144824931       -0.15543153969631       -0.02358903229597
N            8.27268095033097       -1.50537339735038        0.24846056752873
C            8.20809668569007       -1.97695754801797        1.56404465200973
C            8.64815748600804       -1.18210323484475        2.62250517806558
C            8.58042861551338       -1.65062889728304        3.91995931789249
C            8.08379956051779       -2.91643215741924        4.18473854157708
C            7.64864433931694       -3.71134377040409        3.13697767399702
C            7.70385039129822       -3.24857836554908        1.83680706743665
C            8.59048506360767       -2.37955597555754       -0.79671179851141
C            7.97852924573234       -2.24168681337187       -2.04267035825019
C            8.29731780643977       -3.10284742039460       -3.07425236784453
C            9.22065899645933       -4.11747964450497       -2.88202123627042
C            9.82861691515567       -4.26134893323616       -1.64557825118596
C            9.52307622656658       -3.39983113465043       -0.61013830157923
C            8.77214531906381        0.51890282502997       -0.99222966127740
C            8.53031172210621        1.85033272989040       -1.25427770471455
C            3.81888752330357        4.76478669154199       -0.07648093396277
C            2.54021860732807        4.26024151750665        0.03975945602091
C            0.63146650790940        1.13083105059171       -0.20186365376579
C           -0.64560386930359        0.62567225648877       -0.09524973229740
H           -3.07611655678360       -0.21031271923532        0.07680488363418
H           -4.27073709190923        2.56704785967053       -0.35909068077608
H           -4.96237382229752       -1.11951708668758        0.31023933705860
H           -7.21933174143057       -2.01965495368630        0.44474403243455
H          -11.98454250803059       -0.59155449820253       -0.71539058922488
H          -13.81074444970550        0.73176845873747        0.26331542645773
H          -13.38726369386747        2.17878003825651        2.21944516500141
H          -11.12009279674594        2.28324324644825        3.19340448516514
H           -9.29561188042461        0.94790809217660        2.22764734435040
H           -8.41381243124429       -1.78010373009014       -2.01921859713463
H           -8.87009576434928       -4.04403131477451       -2.86154271084095
H          -10.46791086582529       -5.51126867378886       -1.68073827561996
H          -11.60022008757252       -4.69446241989064        0.35648796317440
H          -11.13277391414934       -2.43744266066265        1.21154637203831
H           -8.83114231483836        1.86318631370011       -0.32305779993628
H           -6.56517091220100        2.77366394678562       -0.45091848730856
H           -2.38612534047776        3.49233258641805       -0.49853031749028
H           -0.13065901374831        4.38067104054511       -0.68939132453685
H            2.94035695739918        1.40016836201514       -1.70607361422460
H            5.21319387942790        2.29069089401279       -1.89823722453262
H            6.17222177897789        5.69749839908025       -1.01644535764575
H            8.21996927817324        4.52228508700717       -1.07652840798097
H            6.04192362122437        2.40152116297213        0.95767846405498
H            6.46931618682104        0.03676988164985        1.43560480143667
H            9.04579381887945       -0.19866689233045        2.41831461421595
H            8.92690365733240       -1.02527978946151        4.72972703223777
H            8.03625627751396       -3.28059387075488        5.19977791351540
H            7.25454321874280       -4.69761643627117        3.33400244590731
H            7.35432423375758       -3.86703305675981        1.02296773115668
H            7.25044166426469       -1.45776091509853       -2.19205058922677
H            7.81397750694883       -2.98601323908494       -4.03322261325158
H            9.46464910257998       -4.79089429354100       -3.68958737497294
H           10.55420500214549       -5.04587097037760       -1.48787687838882
H           10.00674688042067       -3.50810059556165        0.34970511863393
H            9.54758587323054       -0.00833221124400       -1.52885154162200
H            9.12021242832923        2.36048195718677       -2.00282141078853
H            4.06335732540011        5.71600077247400        0.37593750126108
H            1.79535815579302        4.81416976222325        0.59275897052651
H            1.47953272543011        0.46886042499419       -0.10081063948221
H           -0.78565713698079       -0.43330048524795        0.07364070904792
