52
 energy: -75.431595693473 gnorm: 0.000023116559 xtb: 6.7.1 (edcfbbe)
C           -5.65585391511311        1.66659693979689       -0.03412874939722
C           -4.98029639904393        0.91253714443979       -0.97916332577476
C           -3.59934724058871        0.85781432880028       -0.96912312056394
C           -2.87313841964642        1.55955794086325       -0.01129061813599
C           -1.39959881726336        1.52085737264648        0.00734485666724
C           -0.68969421536240        2.71698055875971        0.00815811325509
C            0.68972172315042        2.71697484117018       -0.00796840033243
C            1.39961465387132        1.52084438265770       -0.00723697218631
C            2.87315480685598        1.55952771867437        0.01140055623024
C            3.59935680198450        0.85770951307604        0.96918396045718
C            4.98030592413993        0.91242353626769        0.97923281503340
C            5.65587100686711        1.66654651927761        0.03425453051894
C            4.94168339757646        2.37563444963237       -0.91644318888794
C            3.55984052824931        2.32681569092537       -0.92499462070386
C            0.69929395055758        0.30951785469668       -0.00142926710264
C            1.43678864204441       -0.97046190280984       -0.00748238015691
C            1.23393737652015       -1.91133081747197        0.99706397707085
C            1.92931614334186       -3.10585808779599        0.98790868397403
C            2.83271260041362       -3.37777024724337       -0.02551671795042
C            3.03971536002452       -2.44717797117503       -1.02960853697397
C            2.34846064715648       -1.25027512763771       -1.02048179159905
C           -0.69928984998546        0.30952439335056        0.00145320944098
C           -1.43679762228130       -0.97044820450378        0.00741456522713
C           -1.23395667331119       -1.91124655610668       -0.99719995704723
C           -1.92934908433923       -3.10576653344826       -0.98813158701857
C           -2.83274859615085       -3.37774213306160        0.02527406157221
C           -3.03974103848656       -2.44722037365786        1.02943335706233
C           -2.34847294216203       -1.25032459297597        1.02039348518669
C           -3.55981565385274        2.32678533334811        0.92516014634260
C           -4.94165852151815        2.37561428895622        0.91661614099241
H           -6.73530123149132        1.70375965409667       -0.04030688700045
H           -5.53241803318204        0.36398096184244       -1.72834761549505
H           -3.07673651078237        0.27633677645337       -1.71417825460587
H           -1.23145311288753        3.65181146707097        0.00197531171468
H            1.23148911584027        3.65180028756705       -0.00172046524380
H            3.07673924002119        0.27618239693351        1.71419617540273
H            5.53242218198022        0.36379835195881        1.72837112867491
H            6.73531934501819        1.70368694556714        0.04042769418904
H            5.46314152057537        2.96797177813751       -1.65455762644915
H            3.00337369229559        2.87236177097942       -1.67430464371169
H            0.53524405072897       -1.69812813031095        1.79331159839358
H            1.76562366191600       -3.82732694239482        1.77523292173842
H            3.37443860549656       -4.31219882927952       -0.03240204446171
H            3.74285702553182       -2.65443954470105       -1.82323172883546
H            2.50704835824634       -0.52721768058861       -1.80790132030012
H           -0.53525847100919       -1.69799523164852       -1.79343030103511
H           -1.76566360821775       -3.82718066943828       -1.77550745056674
H           -3.37448706690099       -4.31216400888206        0.03209014943904
H           -3.74288765712012       -2.65453019564932        1.82303955528277
H           -2.50705330874921       -0.52732218623136        1.80786504026967
H           -3.00334351482323        2.87226756620061        1.67451231357808
H           -5.46310985613977        2.96790520286667        1.65477222382562
