52
 energy: -75.327659147430 gnorm: 0.000071055989 xtb: 6.7.1 (edcfbbe)
C           -5.66560054445386        1.64643677856095       -0.24826208084631
C           -4.97706461851729        0.62381651927303       -0.89489061153077
C           -3.60799630223696        0.54845455083277       -0.83152599312082
C           -2.85020829745108        1.50370142876878       -0.10603976212989
C           -1.43325624694605        1.43930187495692        0.01898512422536
C           -0.67120321149947        2.66056482226829        0.03554574796310
C            0.67208397285272        2.66042409367952       -0.07103217340942
C            1.43461267749948        1.43983856458803       -0.03344848744177
C            2.84890670350419        1.50360348083817        0.10513659261625
C            3.59896188425111        0.54764658891651        0.83972349995651
C            4.96725378670551        0.61954343651502        0.91485970558377
C            5.66438430476496        1.63938263455755        0.27245190553908
C            4.95117338099222        2.60827872153485       -0.43116527306296
C            3.58251645906325        2.55828111694081       -0.50145662438369
C            0.68660642692884        0.20073764300851       -0.02133491852728
C            1.42532384865639       -1.07013264525205       -0.09866421474913
C            1.23822947015765       -2.08201055689292        0.84303549359969
C            1.93907737499891       -3.26780115514091        0.74562676640247
C            2.83198465778440       -3.46864937603476       -0.29549124338863
C            3.02580642302062       -2.47045094147436       -1.23569412978700
C            2.33351100379676       -1.27888907712585       -1.13691445464027
C           -0.68675396404893        0.20131647620020        0.01428414977496
C           -1.42576759905118       -1.06998102943552        0.09448087537243
C           -1.24398982750764       -2.07952142355699       -0.85034921650307
C           -1.94416961972041       -3.26570454635356       -0.75127660566433
C           -2.83101859389843       -3.46847980025845        0.29451162015356
C           -3.01926636596352       -2.47232761277303        1.23795887962714
C           -2.32726027807138       -1.28060304422543        1.13773098245078
C           -3.57467783819369        2.56034582080515        0.50589642359933
C           -4.94415193414100        2.61420422615702        0.44766418038844
H           -6.74233579450517        1.69807802243375       -0.29723725116164
H           -5.52475431885446       -0.11182613816843       -1.46637710508487
H           -3.09433289776074       -0.21434627694477       -1.39393258532824
H           -1.20578953400731        3.59803678112368        0.04111339049360
H            1.20525492458975        3.59840472224143       -0.09168687661125
H            3.07839433305584       -0.21188160178943        1.40016271874599
H            5.50802607220862       -0.11622827600663        1.49274515296401
H            6.74073183122997        1.68843030697100        0.33085788887671
H            5.48380132827959        3.40437743789866       -0.93200606177547
H            3.05696416949908        3.29535251994270       -1.08960676245743
H            0.55487789031514       -1.92419511557417        1.66480131793982
H            1.79060124847540       -4.03962916519628        1.48685364407709
H            3.37588029947646       -4.39859887870035       -0.37110030106810
H            3.72085339894979       -2.62073434978517       -2.04898256495494
H            2.48054327012987       -0.50405439422748       -1.87572050215497
H           -0.56464057958892       -1.92004476599827       -1.67516031812430
H           -1.79974559345178       -4.03617282665988       -1.49471253495005
H           -3.37457860668494       -4.39853689926963        0.37137260207200
H           -3.70960640221345       -2.62428281252946        2.05493778617095
H           -2.47002558256619       -0.50707690918907        1.87876386776926
H           -3.04135753343167        3.29688598508253        1.08781299611163
H           -5.47007712260481        3.41251136776089        0.95204167551295
