52
 energy: -75.431596389721 gnorm: 0.000033792129 xtb: 6.7.1 (edcfbbe)
C           -5.65134608112037        1.60792245156571       -0.12311090175651
C           -4.96167957117696        0.85176497833751       -1.05619818909756
C           -3.58116678682797        0.79505713751507       -1.02369548677762
C           -2.86951003288386        1.49680595109948       -0.05498966457426
C           -1.39653431840919        1.45567368811410       -0.01292936524088
C           -0.68452229711735        2.65046752754530       -0.00154042943707
C            0.69497285365145        2.64783771298756        0.00363272068448
C            1.40256629032483        1.45037999075886        0.01422846834368
C            2.87568288124016        1.48650535126727        0.05572738299439
C            3.58560665529071        0.78121753575857        1.02313542505364
C            4.96628288860470        0.83412525672102        1.05548703744782
C            5.65785896339522        1.58993906880475        0.12353745093984
C            4.95988001362683        2.30234346495207       -0.83667066067625
C            3.57829821152740        2.25527204675176       -0.86756580209877
C            0.69999291365440        0.24032173085618        0.00899121301339
C            1.43503064855197       -1.04108654665422        0.01012724724472
C            1.21672506010860       -1.98470829193979        1.00881655385869
C            1.90855367355322       -3.18133617701262        1.00426532802995
C            2.82387228249646       -3.45257008109231        0.00141473375815
C            3.04672261899787       -2.51898983988859       -0.99649513921052
C            2.35899357026970       -1.32004192975190       -0.99195190662441
C           -0.69850513109576        0.24298595477003       -0.00787383532524
C           -1.43898601424736       -1.03528751479452       -0.00928075156367
C           -1.22484994475400       -1.97981137610415       -1.00800800305879
C           -1.92283768952177       -3.17286185699259       -1.00414446501080
C           -2.84027697325187       -3.43953579058075       -0.00201575326566
C           -3.05883452693879       -2.50513100935162        0.99607475739494
C           -2.36484312527779       -1.30981670338118        0.99229255849757
C           -3.57013695529003        2.26618103343136        0.86927562200831
C           -4.95158981652102        2.31703267564566        0.83823669230688
H           -6.73049554193231        1.64658389227405       -0.14681362021678
H           -5.50236534115647        0.30312513314681       -1.81361592228198
H           -3.04745413431360        0.21194604641418       -1.75954353929395
H           -1.22434435508999        3.58632435824996       -0.01609718515476
H            1.23828330500950        3.58166590820767        0.01873564467374
H            3.05043508366533        0.19847691509220        1.75821239678356
H            5.50561129351343        0.28293504657325        1.81201910443199
H            6.73710005375399        1.62584414304058        0.14725302497014
H            5.49385961871404        2.89595937094389       -1.56473413090816
H            3.03467814388739        2.80341223910445       -1.62436926959609
H            0.50855482345306       -1.77223865669049        1.79684189163757
H            1.73250080383974       -3.90510707534117        1.78679183938865
H            3.36247289652677       -4.38882219706956       -0.00212872987627
H            3.75931982189833       -2.72559470826602       -1.78181563004697
H            2.52975603858023       -0.59472057847286       -1.77473361921938
H           -0.51509179139187       -1.77077764679914       -1.79552030926809
H           -1.75004613103858       -3.89738509270573       -1.78669934679447
H           -3.38393479391820       -4.37286179482779        0.00082719625946
H           -3.77308737251055       -2.70821899422040        1.78080997578246
H           -2.53230737348952       -0.58381798806247        1.77516166215189
H           -3.02510781184976        2.81171699748590        1.62695111741368
H           -5.48404487418040        2.91093516149196        1.56718026610526
