52
 energy: -75.327654233401 gnorm: 0.000042722122 xtb: 6.7.1 (edcfbbe)
C           -5.66228724744735        1.65096224655292       -0.26809531772583
C           -4.97108767784870        0.62981625508685       -0.91450757591859
C           -3.60250806619683        0.55367926210690       -0.84522921202898
C           -2.84708460763056        1.50638679004420       -0.11286537175135
C           -1.43181649853105        1.43914659860177        0.02085554363635
C           -0.66706477440249        2.65850255742792        0.05138369967745
C            0.67661183276047        2.65596032701618       -0.05020392723055
C            1.43673054898354        1.43370502002050       -0.01993776113433
C            2.85225042493455        1.49552847019056        0.11377487168303
C            3.60404937274314        0.53979218149646        0.84591517372958
C            4.97291240558677        0.61070374652065        0.91519634749867
C            5.66798524737900        1.62934428269300        0.26899474014003
C            4.95275136266674        2.59823770744912       -0.43223226802691
C            3.58360135720409        2.54896993752150       -0.49670234566138
C            0.68688070606471        0.19674403646986       -0.01339727583521
C            1.42280636028686       -1.07663641931664       -0.08291959089923
C            1.22855902657489       -2.08203740194250        0.86405530015312
C            1.92639971943524       -3.27045857725663        0.77719231691020
C            2.82342418044225       -3.48000594900127       -0.25858854034382
C            3.02396566765152       -2.48830184362927       -1.20421438272749
C            2.33441423164485       -1.29421951807032       -1.11607949376788
C           -0.68666264806867        0.19934850488867        0.01401964487768
C           -1.42741300641544       -1.07125283656878        0.08322616713959
C           -1.23695355265137       -2.07714527251526       -0.86399498711819
C           -1.93928361695050       -3.26294095266499       -0.77743526271719
C           -2.83711086777445       -3.46934877753595        0.25827965726022
C           -3.03392265517675       -2.47712345966302        1.20414348361326
C           -2.33985791147198       -1.28563506585594        1.11631508046779
C           -3.57442523072401        2.56247718055174        0.49783348984069
C           -4.94337462161604        2.61697407016101        0.43335131173378
H           -6.73875681376980        1.70315340485458       -0.32168804466119
H           -5.51650377478077       -0.10384861548219       -1.49069337144322
H           -3.08662933593035       -0.20705870598614       -1.40837128485824
H           -1.19919599231203        3.59728445817546        0.06276783442610
H            1.21230138394535        3.59272085613710       -0.06136784437194
H            3.08528522222261       -0.21910862750149        1.40889322101793
H            5.51553331816512       -0.12515934233243        1.49122144121139
H            6.74465482108595        1.67741792441345        0.32257589588328
H            5.48372733445209        3.39364004323461       -0.93591443896939
H            3.05582162427529        3.28596492685536       -1.08301613028632
H            0.54159166387923       -1.91718452361105        1.68143901537371
H            1.77231928687575       -4.03730198430996        1.52244069057653
H            3.36524394993352       -4.41181057426166       -0.32591948172490
H            3.72218216162112       -2.64563338186699       -2.01344116004751
H            2.48682988087765       -0.52439641582437       -1.85902485581914
H           -0.54935978303339       -1.91468596284147       -1.68133030513812
H           -1.78809248442910       -4.03017596398859       -1.52287196225726
H           -3.38244713400750       -4.39911550441499        0.32537483716017
H           -3.73274397208675       -2.63201356172936        2.01331820710533
H           -2.48937820222203       -0.51542333027821        1.85944517559395
H           -3.04385397535426        3.29731848515793        1.08432255459803
H           -5.47132445377555        3.41428034354377        0.93719837771920
